REMARK  Name = =
REMARK  0 active torsions:
REMARK  status: ('A' for Active; 'I' for Inactive)
REMARK                            x       y       z     vdW  Elec       q    Type
REMARK                         _______ _______ _______ _____ _____    ______ ____
ROOT
ATOM      1  C   UNL     1      18.515  33.332  16.263  0.00  0.00    +0.046 C 
ATOM      2  C   UNL     1      18.397  33.274  14.767  0.00  0.00    -0.023 C 
ATOM      3  C   UNL     1      17.151  33.602  14.177  0.00  0.00    +0.033 C 
ATOM      4  C   UNL     1      16.906  33.587  12.812  0.00  0.00    +0.073 C 
ATOM      5  C   UNL     1      17.956  33.226  11.953  0.00  0.00    +0.028 C 
ATOM      6  C   UNL     1      17.727  33.201  10.567  0.00  0.00    +0.013 C 
ATOM      7  C   UNL     1      16.470  33.534  10.083  0.00  0.00    +0.020 C 
ATOM      8  C   UNL     1      15.495  33.879  11.001  0.00  0.00    +0.111 C 
ATOM      9  N   UNL     1      15.687  33.911  12.341  0.00  0.00    -0.255 NA
ATOM     10  C   UNL     1      19.225  32.892  12.488  0.00  0.00    +0.100 A 
ATOM     11  C   UNL     1      19.430  32.922  13.872  0.00  0.00    +0.073 A 
ATOM     12  N   UNL     1      20.756  32.551  14.004  0.00  0.00    -0.315 N 
ATOM     13  C   UNL     1      21.265  32.311  12.746  0.00  0.00    +0.194 A 
ATOM     14  N   UNL     1      20.368  32.515  11.820  0.00  0.00    -0.214 NA
ATOM     15  N   UNL     1      22.524  31.917  12.525  0.00  0.00    -0.329 N 
ATOM     16  C   UNL     1      21.527  32.414  15.214  0.00  0.00    +0.152 C 
ATOM     17  H   UNL     1      22.813  31.764  11.565  0.00  0.00    +0.145 HD
ATOM     18  H   UNL     1      23.224  31.748  13.232  0.00  0.00    +0.145 HD
ENDROOT
TORSDOF 0
