REMARK  Name = =
REMARK  1 active torsions:
REMARK  status: ('A' for Active; 'I' for Inactive)
REMARK    1  A    between atoms: N_3  and  C_7
REMARK                            x       y       z     vdW  Elec       q    Type
REMARK                         _______ _______ _______ _____ _____    ______ ____
ROOT
ATOM      1  C   UNL     1      20.279  33.282  13.166  0.00  0.00    +0.122 C 
ATOM      2  N   UNL     1      19.341  33.970  13.850  0.00  0.00    -0.232 NA
ATOM      3  C   UNL     1      18.048  33.869  13.477  0.00  0.00    +0.073 C 
ATOM      4  C   UNL     1      17.071  34.557  14.187  0.00  0.00    +0.028 C 
ATOM      5  C   UNL     1      15.718  34.483  13.839  0.00  0.00    +0.002 C 
ATOM      6  C   UNL     1      15.323  33.708  12.756  0.00  0.00    +0.001 C 
ATOM      7  C   UNL     1      16.280  33.009  12.025  0.00  0.00    +0.010 C 
ATOM      8  C   UNL     1      17.638  33.086  12.380  0.00  0.00    +0.001 C 
ATOM      9  C   UNL     1      18.622  32.393  11.673  0.00  0.00    +0.013 C 
ATOM     10  C   UNL     1      19.951  32.493  12.070  0.00  0.00    +0.044 C 
ENDROOT
BRANCH   1  13
ATOM     11  C   UNL     1      21.748  35.283  15.193  0.00  0.00    +0.148 C 
ATOM     12  C   UNL     1      21.804  33.755  14.991  0.00  0.00    +0.157 C 
ATOM     13  N   UNL     1      21.609  33.395  13.576  0.00  0.00    -0.305 N 
ATOM     14  C   UNL     1      22.513  34.050  12.622  0.00  0.00    +0.157 C 
ATOM     15  C   UNL     1      22.439  35.585  12.786  0.00  0.00    +0.148 C 
ATOM     16  N   UNL     1      22.695  35.973  14.227  0.00  0.00    +0.229 N 
ATOM     17  H   UNL     1      22.592  36.990  14.330  0.00  0.00    +0.201 HD
ATOM     18  H   UNL     1      23.662  35.739  14.480  0.00  0.00    +0.201 HD
ENDBRANCH   1  13
TORSDOF 1
