REMARK  Name = =
REMARK  6 active torsions:
REMARK  status: ('A' for Active; 'I' for Inactive)
REMARK    1  A    between atoms: N_1  and  C_2
REMARK    2  A    between atoms: N_1  and  C_17
REMARK    3  A    between atoms: N_8  and  C_23
REMARK    4  A    between atoms: C_14  and  C_19
REMARK    5  A    between atoms: C_20  and  C_21
REMARK    6  A    between atoms: C_26  and  C_29
REMARK                            x       y       z     vdW  Elec       q    Type
REMARK                         _______ _______ _______ _____ _____    ______ ____
ROOT
ATOM      1  C   UNL     1      20.166  34.353  16.377  0.00  0.00    +0.128 C 
ATOM      2  N   UNL     1      20.069  35.260  17.363  0.00  0.00    -0.199 NA
ATOM      3  C   UNL     1      20.542  34.938  18.574  0.00  0.00    +0.221 C 
ATOM      4  N   UNL     1      21.145  33.771  18.841  0.00  0.00    -0.223 NA
ATOM      5  C   UNL     1      21.240  32.889  17.831  0.00  0.00    +0.118 C 
ATOM      6  C   UNL     1      20.757  33.127  16.571  0.00  0.00    +0.063 C 
ATOM      7  N   UNL     1      20.437  35.814  19.652  0.00  0.00    -0.284 N 
ATOM      8  H   UNL     1      20.917  35.415  20.446  0.00  0.00    +0.155 HD
ENDROOT
BRANCH   7   9
ATOM      9  C   UNL     1      19.764  37.024  19.847  0.00  0.00    +0.034 C 
ATOM     10  C   UNL     1      18.917  37.605  18.894  0.00  0.00    +0.024 C 
ATOM     11  C   UNL     1      18.281  38.830  19.133  0.00  0.00    +0.020 C 
ATOM     12  C   UNL     1      18.490  39.506  20.335  0.00  0.00    +0.052 C 
ATOM     13  C   UNL     1      19.338  38.951  21.294  0.00  0.00    +0.020 C 
ATOM     14  C   UNL     1      19.968  37.725  21.047  0.00  0.00    +0.024 C 
BRANCH  12  15
ATOM     15  C   UNL     1      17.840  40.760  20.581  0.00  0.00    +0.099 C 
ATOM     16  N   UNL     1      17.315  41.775  20.782  0.00  0.00    -0.191 NA
ENDBRANCH  12  15
ENDBRANCH   7   9
BRANCH   1  17
ATOM     17  N   UNL     1      19.641  34.742  15.146  0.00  0.00    -0.299 N 
ATOM     18  H   UNL     1      19.297  35.695  15.194  0.00  0.00    +0.154 HD
BRANCH  17  25
ATOM     19  C   UNL     1      21.389  33.834  13.072  0.00  0.00    +0.046 C 
ATOM     20  C   UNL     1      19.904  33.585  13.032  0.00  0.00    -0.028 C 
ATOM     21  C   UNL     1      19.345  32.961  11.904  0.00  0.00    +0.013 C 
ATOM     22  C   UNL     1      17.969  32.743  11.813  0.00  0.00    -0.024 C 
ATOM     23  C   UNL     1      17.155  33.121  12.885  0.00  0.00    +0.013 C 
ATOM     24  C   UNL     1      17.683  33.768  14.016  0.00  0.00    -0.028 C 
ATOM     25  C   UNL     1      19.076  33.981  14.107  0.00  0.00    +0.038 C 
ATOM     26  C   UNL     1      16.722  34.224  15.081  0.00  0.00    +0.046 C 
BRANCH  22  27
ATOM     27  C   UNL     1      17.332  32.152  10.631  0.00  0.00    +0.019 C 
ATOM     28  C   UNL     1      16.669  32.875   9.716  0.00  0.00    +0.089 C 
BRANCH  28  29
ATOM     29  C   UNL     1      15.874  32.182   8.622  0.00  0.00    +0.091 C 
ATOM     30  N   UNL     1      15.213  31.607   7.714  0.00  0.00    -0.191 NA
ENDBRANCH  28  29
ENDBRANCH  22  27
ENDBRANCH  17  25
ENDBRANCH   1  17
TORSDOF 6
