REMARK  Name = =
REMARK  2 active torsions:
REMARK  status: ('A' for Active; 'I' for Inactive)
REMARK    1  A    between atoms: N_1  and  C_17
REMARK    2  A    between atoms: C_17  and  C_19
REMARK                            x       y       z     vdW  Elec       q    Type
REMARK                         _______ _______ _______ _____ _____    ______ ____
ROOT
ATOM      1  N   UNL     1      16.981  32.571  11.325  0.00  0.00    -0.329 N 
ATOM      2  C   UNL     1      18.099  31.908  10.887  0.00  0.00    +0.200 C 
ATOM      3  N   UNL     1      18.973  31.734  11.844  0.00  0.00    -0.232 NA
ATOM      4  C   UNL     1      18.392  32.296  12.965  0.00  0.00    +0.129 A 
ATOM      5  C   UNL     1      17.129  32.828  12.673  0.00  0.00    +0.081 A 
ATOM      6  C   UNL     1      16.354  33.447  13.695  0.00  0.00    +0.026 A 
ATOM      7  C   UNL     1      15.071  34.013  13.517  0.00  0.00    +0.012 C 
ATOM      8  C   UNL     1      14.401  34.596  14.592  0.00  0.00    +0.001 C 
ATOM      9  C   UNL     1      14.999  34.618  15.844  0.00  0.00    +0.002 C 
ATOM     10  C   UNL     1      16.268  34.059  16.019  0.00  0.00    +0.028 C 
ATOM     11  C   UNL     1      16.966  33.471  14.974  0.00  0.00    +0.075 A 
ATOM     12  N   UNL     1      18.176  32.963  15.246  0.00  0.00    -0.230 NA
ATOM     13  C   UNL     1      18.908  32.375  14.275  0.00  0.00    +0.145 A 
ATOM     14  N   UNL     1      20.142  31.871  14.616  0.00  0.00    -0.341 N 
ATOM     15  H   UNL     1      20.698  31.428  13.899  0.00  0.00    +0.144 HD
ATOM     16  H   UNL     1      20.444  31.963  15.571  0.00  0.00    +0.144 HD
ENDROOT
BRANCH   1  17
ATOM     17  C   UNL     1      15.859  32.869  10.457  0.00  0.00    +0.126 C 
BRANCH  17  19
ATOM     18  C   UNL     1      15.797  33.105   7.924  0.00  0.00    +0.009 C 
ATOM     19  C   UNL     1      16.223  33.748   9.246  0.00  0.00    +0.003 C 
ATOM     20  C   UNL     1      15.566  35.122   9.388  0.00  0.00    +0.009 C 
ENDBRANCH  17  19
ENDBRANCH   1  17
TORSDOF 2
