MODEL 1
REMARK minimizedAffinity -10.0835924
REMARK minimizedRMSD -1
REMARK  Name = 
REMARK  7 active torsions:
REMARK  status: ('A' for Active; 'I' for Inactive)
REMARK    1  A    between atoms: C_2  and  C_3
REMARK    2  A    between atoms: C_8  and  C_11
REMARK    3  A    between atoms: C_11  and  N_12
REMARK    4  A    between atoms: C_17  and  N_32
REMARK    5  A    between atoms: C_18  and  C_19
REMARK    6  A    between atoms: C_22  and  O_25
REMARK    7  A    between atoms: O_25  and  C_26
REMARK                            x       y       z     vdW  Elec       q    Type
REMARK                         _______ _______ _______ _____ _____    ______ ____
ROOT
ATOM      1  N   UNL     1      15.855  34.145  12.720  0.00  0.00    -0.328 N 
ATOM      2  C   UNL     1      15.358  34.241  13.992  0.00  0.00    +0.132 A 
ATOM      3  N   UNL     1      14.010  34.204  13.976  0.00  0.00    -0.220 NA
ATOM      4  C   UNL     1      13.375  34.254  15.151  0.00  0.00    +0.225 A 
ATOM      5  N   UNL     1      13.950  34.352  16.349  0.00  0.00    -0.220 NA
ATOM      6  C   UNL     1      15.287  34.427  16.347  0.00  0.00    +0.129 A 
ATOM      7  C   UNL     1      16.075  34.366  15.186  0.00  0.00    +0.061 A 
ATOM      8  H   UNL     1      15.091  34.101  12.051  0.00  0.00    +0.147 HD
ENDROOT
BRANCH   7   9
ATOM      9  C   UNL     1      17.539  34.484  15.279  0.00  0.00    -0.011 A 
ATOM     10  C   UNL     1      18.176  35.719  15.067  0.00  0.00    +0.012 A 
ATOM     11  C   UNL     1      19.567  35.831  15.137  0.00  0.00    +0.047 A 
ATOM     12  C   UNL     1      20.336  34.710  15.433  0.00  0.00    +0.128 A 
ATOM     13  C   UNL     1      19.729  33.465  15.604  0.00  0.00    +0.047 A 
ATOM     14  C   UNL     1      18.338  33.354  15.528  0.00  0.00    +0.012 A 
BRANCH  12  15
ATOM     15  O   UNL     1      21.701  34.872  15.466  0.00  0.00    -0.456 OA
BRANCH  15  16
ATOM     16  C   UNL     1      22.429  34.250  14.476  0.00  0.00    +0.128 A 
ATOM     17  C   UNL     1      23.238  33.135  14.716  0.00  0.00    +0.046 A 
ATOM     18  C   UNL     1      23.981  32.580  13.674  0.00  0.00    +0.004 A 
ATOM     19  C   UNL     1      23.929  33.148  12.400  0.00  0.00    +0.000 A 
ATOM     20  C   UNL     1      23.140  34.275  12.168  0.00  0.00    +0.004 A 
ATOM     21  C   UNL     1      22.396  34.832  13.209  0.00  0.00    +0.046 A 
ENDBRANCH  15  16
ENDBRANCH  12  15
ENDBRANCH   7   9
BRANCH   6  22
ATOM     22  N   UNL     1      15.848  34.518  17.615  0.00  0.00    -0.343 N 
ATOM     23  H   UNL     1      15.149  34.562  18.347  0.00  0.00    +0.144 HD
ATOM     24  H   UNL     1      16.666  35.101  17.720  0.00  0.00    +0.144 HD
ENDBRANCH   6  22
BRANCH   1  25
ATOM     25  C   UNL     1      17.139  33.672  12.256  0.00  0.00    +0.106 C 
BRANCH  25  31
ATOM     26  C   UNL     1      15.692  30.812   7.829  0.00  0.00    +0.239 C 
ATOM     27  O   UNL     1      16.177  29.683   7.801  0.00  0.00    -0.271 OA
ATOM     28  N   UNL     1      16.304  31.903   8.421  0.00  0.00    -0.298 N 
ATOM     29  C   UNL     1      17.676  31.766   8.901  0.00  0.00    +0.108 C 
ATOM     30  C   UNL     1      17.759  32.042  10.400  0.00  0.00    +0.024 C 
ATOM     31  C   UNL     1      17.154  33.417  10.742  0.00  0.00    +0.009 C 
ATOM     32  C   UNL     1      15.724  33.512  10.183  0.00  0.00    +0.024 C 
ATOM     33  C   UNL     1      15.680  33.198   8.689  0.00  0.00    +0.108 C 
BRANCH  26  35
ATOM     34  C   UNL     1      13.489  29.993   7.096  0.00  0.00    +0.013 C 
ATOM     35  C   UNL     1      14.356  31.007   7.218  0.00  0.00    +0.060 C 
ENDBRANCH  26  35
ENDBRANCH  25  31
ENDBRANCH   1  25
TORSDOF 7
ENDMDL
MODEL 2
REMARK minimizedAffinity -9.84988785
REMARK minimizedRMSD -1
REMARK  Name = 
REMARK  7 active torsions:
REMARK  status: ('A' for Active; 'I' for Inactive)
REMARK    1  A    between atoms: C_2  and  C_3
REMARK    2  A    between atoms: C_8  and  C_11
REMARK    3  A    between atoms: C_11  and  N_12
REMARK    4  A    between atoms: C_17  and  N_32
REMARK    5  A    between atoms: C_18  and  C_19
REMARK    6  A    between atoms: C_22  and  O_25
REMARK    7  A    between atoms: O_25  and  C_26
REMARK                            x       y       z     vdW  Elec       q    Type
REMARK                         _______ _______ _______ _____ _____    ______ ____
ROOT
ATOM      1  N   UNL     1      17.144  34.381  15.126  0.00  0.00    -0.328 N 
ATOM      2  C   UNL     1      15.786  34.269  14.995  0.00  0.00    +0.132 A 
ATOM      3  N   UNL     1      15.177  34.502  16.175  0.00  0.00    -0.220 NA
ATOM      4  C   UNL     1      13.841  34.463  16.200  0.00  0.00    +0.225 A 
ATOM      5  N   UNL     1      13.045  34.198  15.166  0.00  0.00    -0.220 NA
ATOM      6  C   UNL     1      13.664  33.930  14.009  0.00  0.00    +0.129 A 
ATOM      7  C   UNL     1      15.058  33.958  13.842  0.00  0.00    +0.061 A 
ATOM      8  H   UNL     1      17.384  34.582  16.093  0.00  0.00    +0.147 HD
ENDROOT
BRANCH   7   9
ATOM      9  C   UNL     1      15.653  33.623  12.537  0.00  0.00    -0.011 A 
ATOM     10  C   UNL     1      15.727  34.583  11.512  0.00  0.00    +0.012 A 
ATOM     11  C   UNL     1      16.274  34.264  10.268  0.00  0.00    +0.047 A 
ATOM     12  C   UNL     1      16.764  32.981  10.037  0.00  0.00    +0.128 A 
ATOM     13  C   UNL     1      16.661  32.000  11.024  0.00  0.00    +0.047 A 
ATOM     14  C   UNL     1      16.107  32.321  12.267  0.00  0.00    +0.012 A 
BRANCH  12  15
ATOM     15  O   UNL     1      17.270  32.714   8.787  0.00  0.00    -0.456 OA
BRANCH  15  16
ATOM     16  C   UNL     1      16.570  31.823   8.005  0.00  0.00    +0.128 A 
ATOM     17  C   UNL     1      15.173  31.758   7.994  0.00  0.00    +0.046 A 
ATOM     18  C   UNL     1      14.528  30.802   7.209  0.00  0.00    +0.004 A 
ATOM     19  C   UNL     1      15.278  29.903   6.449  0.00  0.00    +0.000 A 
ATOM     20  C   UNL     1      16.673  29.953   6.479  0.00  0.00    +0.004 A 
ATOM     21  C   UNL     1      17.319  30.909   7.265  0.00  0.00    +0.046 A 
ENDBRANCH  15  16
ENDBRANCH  12  15
ENDBRANCH   7   9
BRANCH   6  22
ATOM     22  N   UNL     1      12.799  33.670  12.954  0.00  0.00    -0.343 N 
ATOM     23  H   UNL     1      11.827  33.677  13.237  0.00  0.00    +0.144 HD
ATOM     24  H   UNL     1      13.082  32.969  12.284  0.00  0.00    +0.144 HD
ENDBRANCH   6  22
BRANCH   1  25
ATOM     25  C   UNL     1      18.152  34.694  14.139  0.00  0.00    +0.106 C 
BRANCH  25  31
ATOM     26  C   UNL     1      23.090  32.798  12.767  0.00  0.00    +0.239 C 
ATOM     27  O   UNL     1      23.340  32.915  11.570  0.00  0.00    -0.271 OA
ATOM     28  N   UNL     1      21.819  32.609  13.279  0.00  0.00    -0.298 N 
ATOM     29  C   UNL     1      20.716  32.368  12.353  0.00  0.00    +0.108 C 
ATOM     30  C   UNL     1      19.640  33.441  12.495  0.00  0.00    +0.024 C 
ATOM     31  C   UNL     1      19.163  33.554  13.956  0.00  0.00    +0.009 C 
ATOM     32  C   UNL     1      20.370  33.773  14.884  0.00  0.00    +0.024 C 
ATOM     33  C   UNL     1      21.437  32.698  14.687  0.00  0.00    +0.108 C 
BRANCH  26  35
ATOM     34  C   UNL     1      25.417  32.363  13.446  0.00  0.00    +0.013 C 
ATOM     35  C   UNL     1      24.219  32.896  13.722  0.00  0.00    +0.060 C 
ENDBRANCH  26  35
ENDBRANCH  25  31
ENDBRANCH   1  25
TORSDOF 7
ENDMDL
MODEL 3
REMARK minimizedAffinity -9.84712505
REMARK minimizedRMSD -1
REMARK  Name = 
REMARK  7 active torsions:
REMARK  status: ('A' for Active; 'I' for Inactive)
REMARK    1  A    between atoms: C_2  and  C_3
REMARK    2  A    between atoms: C_8  and  C_11
REMARK    3  A    between atoms: C_11  and  N_12
REMARK    4  A    between atoms: C_17  and  N_32
REMARK    5  A    between atoms: C_18  and  C_19
REMARK    6  A    between atoms: C_22  and  O_25
REMARK    7  A    between atoms: O_25  and  C_26
REMARK                            x       y       z     vdW  Elec       q    Type
REMARK                         _______ _______ _______ _____ _____    ______ ____
ROOT
ATOM      1  N   UNL     1      18.386  33.984  14.579  0.00  0.00    -0.328 N 
ATOM      2  C   UNL     1      17.023  34.002  14.691  0.00  0.00    +0.132 A 
ATOM      3  N   UNL     1      16.656  34.245  15.966  0.00  0.00    -0.220 NA
ATOM      4  C   UNL     1      15.349  34.327  16.229  0.00  0.00    +0.225 A 
ATOM      5  N   UNL     1      14.361  34.177  15.349  0.00  0.00    -0.220 NA
ATOM      6  C   UNL     1      14.738  33.897  14.094  0.00  0.00    +0.129 A 
ATOM      7  C   UNL     1      16.076  33.803  13.681  0.00  0.00    +0.061 A 
ATOM      8  H   UNL     1      18.812  34.125  15.491  0.00  0.00    +0.147 HD
ENDROOT
BRANCH   7   9
ATOM      9  C   UNL     1      16.396  33.464  12.284  0.00  0.00    -0.011 A 
ATOM     10  C   UNL     1      16.994  32.233  11.961  0.00  0.00    +0.012 A 
ATOM     11  C   UNL     1      17.315  31.915  10.640  0.00  0.00    +0.047 A 
ATOM     12  C   UNL     1      17.030  32.822   9.623  0.00  0.00    +0.128 A 
ATOM     13  C   UNL     1      16.477  34.067   9.924  0.00  0.00    +0.047 A 
ATOM     14  C   UNL     1      16.162  34.385  11.248  0.00  0.00    +0.012 A 
BRANCH  12  15
ATOM     15  O   UNL     1      17.388  32.468   8.343  0.00  0.00    -0.456 OA
BRANCH  15  16
ATOM     16  C   UNL     1      16.573  31.568   7.692  0.00  0.00    +0.128 A 
ATOM     17  C   UNL     1      15.187  31.530   7.873  0.00  0.00    +0.046 A 
ATOM     18  C   UNL     1      14.427  30.565   7.212  0.00  0.00    +0.004 A 
ATOM     19  C   UNL     1      15.052  29.630   6.386  0.00  0.00    +0.000 A 
ATOM     20  C   UNL     1      16.439  29.654   6.225  0.00  0.00    +0.004 A 
ATOM     21  C   UNL     1      17.201  30.619   6.886  0.00  0.00    +0.046 A 
ENDBRANCH  15  16
ENDBRANCH  12  15
ENDBRANCH   7   9
BRANCH   6  22
ATOM     22  N   UNL     1      13.679  33.757  13.206  0.00  0.00    -0.343 N 
ATOM     23  H   UNL     1      12.777  33.842  13.659  0.00  0.00    +0.144 HD
ATOM     24  H   UNL     1      13.769  33.059  12.482  0.00  0.00    +0.144 HD
ENDBRANCH   6  22
BRANCH   1  25
ATOM     25  C   UNL     1      19.230  34.241  13.434  0.00  0.00    +0.106 C 
BRANCH  25  31
ATOM     26  C   UNL     1      23.984  31.694  12.549  0.00  0.00    +0.239 C 
ATOM     27  O   UNL     1      23.957  30.501  12.842  0.00  0.00    -0.271 OA
ATOM     28  N   UNL     1      23.229  32.664  13.183  0.00  0.00    -0.298 N 
ATOM     29  C   UNL     1      22.473  32.299  14.378  0.00  0.00    +0.108 C 
ATOM     30  C   UNL     1      20.980  32.546  14.176  0.00  0.00    +0.024 C 
ATOM     31  C   UNL     1      20.716  33.998  13.738  0.00  0.00    +0.009 C 
ATOM     32  C   UNL     1      21.563  34.333  12.498  0.00  0.00    +0.024 C 
ATOM     33  C   UNL     1      23.044  34.042  12.731  0.00  0.00    +0.108 C 
BRANCH  26  35
ATOM     34  C   UNL     1      25.815  31.307  10.950  0.00  0.00    +0.013 C 
ATOM     35  C   UNL     1      24.857  32.113  11.427  0.00  0.00    +0.060 C 
ENDBRANCH  26  35
ENDBRANCH  25  31
ENDBRANCH   1  25
TORSDOF 7
ENDMDL
MODEL 4
REMARK minimizedAffinity -9.6916914
REMARK minimizedRMSD -1
REMARK  Name = 
REMARK  7 active torsions:
REMARK  status: ('A' for Active; 'I' for Inactive)
REMARK    1  A    between atoms: C_2  and  C_3
REMARK    2  A    between atoms: C_8  and  C_11
REMARK    3  A    between atoms: C_11  and  N_12
REMARK    4  A    between atoms: C_17  and  N_32
REMARK    5  A    between atoms: C_18  and  C_19
REMARK    6  A    between atoms: C_22  and  O_25
REMARK    7  A    between atoms: O_25  and  C_26
REMARK                            x       y       z     vdW  Elec       q    Type
REMARK                         _______ _______ _______ _____ _____    ______ ____
ROOT
ATOM      1  N   UNL     1      20.306  32.496  12.621  0.00  0.00    -0.328 N 
ATOM      2  C   UNL     1      21.585  32.815  12.989  0.00  0.00    +0.132 A 
ATOM      3  N   UNL     1      22.469  32.328  12.095  0.00  0.00    -0.220 NA
ATOM      4  C   UNL     1      23.763  32.588  12.300  0.00  0.00    +0.225 A 
ATOM      5  N   UNL     1      24.273  33.275  13.320  0.00  0.00    -0.220 NA
ATOM      6  C   UNL     1      23.388  33.719  14.222  0.00  0.00    +0.129 A 
ATOM      7  C   UNL     1      22.000  33.533  14.116  0.00  0.00    +0.061 A 
ATOM      8  H   UNL     1      20.317  31.936  11.774  0.00  0.00    +0.147 HD
ENDROOT
BRANCH   7   9
ATOM      9  C   UNL     1      21.105  34.034  15.171  0.00  0.00    -0.011 A 
ATOM     10  C   UNL     1      20.727  33.209  16.245  0.00  0.00    +0.012 A 
ATOM     11  C   UNL     1      19.863  33.674  17.239  0.00  0.00    +0.047 A 
ATOM     12  C   UNL     1      19.376  34.977  17.176  0.00  0.00    +0.128 A 
ATOM     13  C   UNL     1      19.702  35.799  16.097  0.00  0.00    +0.047 A 
ATOM     14  C   UNL     1      20.562  35.328  15.100  0.00  0.00    +0.012 A 
BRANCH  12  15
ATOM     15  O   UNL     1      18.511  35.376  18.168  0.00  0.00    -0.456 OA
BRANCH  15  16
ATOM     16  C   UNL     1      17.165  35.332  17.879  0.00  0.00    +0.128 A 
ATOM     17  C   UNL     1      16.453  34.134  17.758  0.00  0.00    +0.046 A 
ATOM     18  C   UNL     1      15.100  34.162  17.423  0.00  0.00    +0.004 A 
ATOM     19  C   UNL     1      14.463  35.383  17.193  0.00  0.00    +0.000 A 
ATOM     20  C   UNL     1      15.180  36.576  17.291  0.00  0.00    +0.004 A 
ATOM     21  C   UNL     1      16.535  36.550  17.625  0.00  0.00    +0.046 A 
ENDBRANCH  15  16
ENDBRANCH  12  15
ENDBRANCH   7   9
BRANCH   6  22
ATOM     22  N   UNL     1      23.958  34.438  15.264  0.00  0.00    -0.343 N 
ATOM     23  H   UNL     1      24.968  34.475  15.205  0.00  0.00    +0.144 HD
ATOM     24  H   UNL     1      23.552  34.327  16.182  0.00  0.00    +0.144 HD
ENDBRANCH   6  22
BRANCH   1  25
ATOM     25  C   UNL     1      19.056  33.149  12.939  0.00  0.00    +0.106 C 
BRANCH  25  31
ATOM     26  C   UNL     1      16.003  33.369   8.412  0.00  0.00    +0.239 C 
ATOM     27  O   UNL     1      15.337  34.398   8.325  0.00  0.00    -0.271 OA
ATOM     28  N   UNL     1      16.353  32.772   9.609  0.00  0.00    -0.298 N 
ATOM     29  C   UNL     1      15.772  33.283  10.847  0.00  0.00    +0.108 C 
ATOM     30  C   UNL     1      16.861  33.764  11.803  0.00  0.00    +0.024 C 
ATOM     31  C   UNL     1      17.899  32.655  12.059  0.00  0.00    +0.009 C 
ATOM     32  C   UNL     1      18.449  32.135  10.719  0.00  0.00    +0.024 C 
ATOM     33  C   UNL     1      17.327  31.695   9.781  0.00  0.00    +0.108 C 
BRANCH  26  35
ATOM     34  C   UNL     1      15.815  31.750   6.566  0.00  0.00    +0.013 C 
ATOM     35  C   UNL     1      16.486  32.749   7.155  0.00  0.00    +0.060 C 
ENDBRANCH  26  35
ENDBRANCH  25  31
ENDBRANCH   1  25
TORSDOF 7
ENDMDL
MODEL 5
REMARK minimizedAffinity -9.38336658
REMARK minimizedRMSD -1
REMARK  Name = 
REMARK  7 active torsions:
REMARK  status: ('A' for Active; 'I' for Inactive)
REMARK    1  A    between atoms: C_2  and  C_3
REMARK    2  A    between atoms: C_8  and  C_11
REMARK    3  A    between atoms: C_11  and  N_12
REMARK    4  A    between atoms: C_17  and  N_32
REMARK    5  A    between atoms: C_18  and  C_19
REMARK    6  A    between atoms: C_22  and  O_25
REMARK    7  A    between atoms: O_25  and  C_26
REMARK                            x       y       z     vdW  Elec       q    Type
REMARK                         _______ _______ _______ _____ _____    ______ ____
ROOT
ATOM      1  N   UNL     1      16.012  34.152  12.712  0.00  0.00    -0.328 N 
ATOM      2  C   UNL     1      15.531  34.183  13.993  0.00  0.00    +0.132 A 
ATOM      3  N   UNL     1      14.185  34.267  13.990  0.00  0.00    -0.220 NA
ATOM      4  C   UNL     1      13.562  34.272  15.172  0.00  0.00    +0.225 A 
ATOM      5  N   UNL     1      14.148  34.217  16.367  0.00  0.00    -0.220 NA
ATOM      6  C   UNL     1      15.487  34.174  16.357  0.00  0.00    +0.129 A 
ATOM      7  C   UNL     1      16.261  34.143  15.185  0.00  0.00    +0.061 A 
ATOM      8  H   UNL     1      15.245  34.233  12.050  0.00  0.00    +0.147 HD
ENDROOT
BRANCH   7   9
ATOM      9  C   UNL     1      17.730  34.124  15.271  0.00  0.00    -0.011 A 
ATOM     10  C   UNL     1      18.430  32.907  15.353  0.00  0.00    +0.012 A 
ATOM     11  C   UNL     1      19.823  32.885  15.452  0.00  0.00    +0.047 A 
ATOM     12  C   UNL     1      20.534  34.082  15.459  0.00  0.00    +0.128 A 
ATOM     13  C   UNL     1      19.859  35.302  15.423  0.00  0.00    +0.047 A 
ATOM     14  C   UNL     1      18.464  35.321  15.330  0.00  0.00    +0.012 A 
BRANCH  12  15
ATOM     15  O   UNL     1      21.901  34.003  15.582  0.00  0.00    -0.456 OA
BRANCH  15  16
ATOM     16  C   UNL     1      22.399  33.660  16.820  0.00  0.00    +0.128 A 
ATOM     17  C   UNL     1      21.601  33.591  17.966  0.00  0.00    +0.046 A 
ATOM     18  C   UNL     1      22.180  33.278  19.196  0.00  0.00    +0.004 A 
ATOM     19  C   UNL     1      23.554  33.051  19.284  0.00  0.00    +0.000 A 
ATOM     20  C   UNL     1      24.353  33.143  18.143  0.00  0.00    +0.004 A 
ATOM     21  C   UNL     1      23.776  33.457  16.911  0.00  0.00    +0.046 A 
ENDBRANCH  15  16
ENDBRANCH  12  15
ENDBRANCH   7   9
BRANCH   6  22
ATOM     22  N   UNL     1      16.058  34.109  17.621  0.00  0.00    -0.343 N 
ATOM     23  H   UNL     1      15.370  34.152  18.362  0.00  0.00    +0.144 HD
ATOM     24  H   UNL     1      16.925  34.606  17.765  0.00  0.00    +0.144 HD
ENDBRANCH   6  22
BRANCH   1  25
ATOM     25  C   UNL     1      17.247  33.609  12.195  0.00  0.00    +0.106 C 
BRANCH  25  31
ATOM     26  C   UNL     1      15.661  30.785   7.794  0.00  0.00    +0.239 C 
ATOM     27  O   UNL     1      16.174  29.671   7.720  0.00  0.00    -0.271 OA
ATOM     28  N   UNL     1      16.270  31.883   8.374  0.00  0.00    -0.298 N 
ATOM     29  C   UNL     1      17.668  31.777   8.782  0.00  0.00    +0.108 C 
ATOM     30  C   UNL     1      17.819  32.030  10.281  0.00  0.00    +0.024 C 
ATOM     31  C   UNL     1      17.194  33.380  10.678  0.00  0.00    +0.009 C 
ATOM     32  C   UNL     1      15.735  33.445  10.192  0.00  0.00    +0.024 C 
ATOM     33  C   UNL     1      15.626  33.154   8.696  0.00  0.00    +0.108 C 
BRANCH  26  35
ATOM     34  C   UNL     1      13.468  29.907   7.100  0.00  0.00    +0.013 C 
ATOM     35  C   UNL     1      14.291  30.952   7.253  0.00  0.00    +0.060 C 
ENDBRANCH  26  35
ENDBRANCH  25  31
ENDBRANCH   1  25
TORSDOF 7
ENDMDL
