REMARK  Name = =
REMARK  3 active torsions:
REMARK  status: ('A' for Active; 'I' for Inactive)
REMARK    1  A    between atoms: C_1  and  O_21
REMARK    2  A    between atoms: C_2  and  O_22
REMARK    3  A    between atoms: N_11  and  C_13
REMARK                            x       y       z     vdW  Elec       q    Type
REMARK                         _______ _______ _______ _____ _____    ______ ____
ROOT
ATOM      1  C   UNL     1      15.008  33.921  13.852  0.00  0.00    +0.162 C 
ATOM      2  C   UNL     1      16.009  33.887  14.821  0.00  0.00    +0.164 C 
ATOM      3  C   UNL     1      17.277  33.414  14.476  0.00  0.00    +0.078 C 
ATOM      4  C   UNL     1      17.560  32.926  13.206  0.00  0.00    +0.080 C 
ATOM      5  C   UNL     1      16.549  32.929  12.234  0.00  0.00    +0.044 C 
ATOM      6  C   UNL     1      15.263  33.416  12.578  0.00  0.00    +0.062 C 
ATOM      7  C   UNL     1      16.922  32.432  10.968  0.00  0.00    +0.134 C 
ATOM      8  N   UNL     1      18.155  31.948  10.732  0.00  0.00    -0.220 NA
ATOM      9  C   UNL     1      19.028  31.991  11.742  0.00  0.00    +0.223 C 
ATOM     10  N   UNL     1      18.792  32.468  12.967  0.00  0.00    -0.235 NA
ATOM     11  N   UNL     1      15.984  32.444   9.910  0.00  0.00    -0.299 N 
ATOM     12  H   UNL     1      15.446  33.299   9.882  0.00  0.00    +0.154 HD
ENDROOT
BRANCH  11  13
ATOM     13  C   UNL     1      15.964  31.711   8.708  0.00  0.00    +0.034 C 
ATOM     14  C   UNL     1      17.127  31.331   8.029  0.00  0.00    +0.043 C 
ATOM     15  C   UNL     1      17.052  30.595   6.845  0.00  0.00    +0.043 C 
ATOM     16  C   UNL     1      15.819  30.216   6.322  0.00  0.00    +0.020 C 
ATOM     17  C   UNL     1      14.652  30.571   6.992  0.00  0.00    +0.003 C 
ATOM     18  C   UNL     1      14.726  31.307   8.178  0.00  0.00    +0.023 C 
ATOM     19 CL   UNL     1      18.497  30.141   6.027  0.00  0.00    -0.083 Cl
ENDBRANCH  11  13
BRANCH   1  21
ATOM     20  C   UNL     1      12.778  33.589  13.443  0.00  0.00    +0.277 C 
ATOM     21  O   UNL     1      13.752  34.401  14.101  0.00  0.00    -0.491 OA
ENDBRANCH   1  21
BRANCH   2  22
ATOM     22  O   UNL     1      15.872  34.339  16.106  0.00  0.00    -0.491 OA
ATOM     23  C   UNL     1      16.881  33.852  16.990  0.00  0.00    +0.277 C 
ENDBRANCH   2  22
TORSDOF 3
