REMARK  Name = =
REMARK  8 active torsions:
REMARK  status: ('A' for Active; 'I' for Inactive)
REMARK    1  A    between atoms: N_1  and  C_5
REMARK    2  A    between atoms: N_1  and  C_13
REMARK    3  A    between atoms: N_1  and  C_21
REMARK    4  A    between atoms: C_13  and  C_14
REMARK    5  A    between atoms: C_14  and  C_15
REMARK    6  A    between atoms: C_15  and  C_16
REMARK    7  A    between atoms: C_16  and  N_17
REMARK    8  A    between atoms: C_21  and  C_22
REMARK                            x       y       z     vdW  Elec       q    Type
REMARK                         _______ _______ _______ _____ _____    ______ ____
ROOT
ATOM      1  N   UNL     1      16.955  33.746  13.832  0.00  0.00    +0.247 N 
ATOM      2  H   UNL     1      17.581  33.859  13.014  0.00  0.00    +0.204 HD
ENDROOT
BRANCH   1   5
ATOM      3  C   UNL     1      14.851  34.781  15.973  0.00  0.00    +0.011 C 
ATOM      4  C   UNL     1      15.138  35.364  14.592  0.00  0.00    +0.061 C 
ATOM      5  C   UNL     1      16.623  35.206  14.210  0.00  0.00    +0.115 C 
ATOM      6  C   UNL     1      17.511  35.749  15.336  0.00  0.00    +0.092 C 
ATOM      7  C   UNL     1      17.042  35.857  16.650  0.00  0.00    -0.021 C 
ATOM      8  C   UNL     1      15.623  35.545  17.045  0.00  0.00    +0.037 C 
ATOM      9  C   UNL     1      17.916  36.367  17.617  0.00  0.00    +0.007 C 
ATOM     10  C   UNL     1      19.204  36.748  17.263  0.00  0.00    +0.020 C 
ATOM     11  C   UNL     1      19.588  36.596  15.947  0.00  0.00    +0.111 C 
ATOM     12  N   UNL     1      18.785  36.078  14.986  0.00  0.00    -0.254 NA
ENDBRANCH   1   5
BRANCH   1  13
ATOM     13  C   UNL     1      17.779  32.893  14.755  0.00  0.00    +0.132 C 
BRANCH  13  14
ATOM     14  C   UNL     1      18.997  32.212  14.108  0.00  0.00    +0.056 C 
BRANCH  14  15
ATOM     15  C   UNL     1      19.709  32.972  12.975  0.00  0.00    +0.056 C 
BRANCH  15  16
ATOM     16  C   UNL     1      21.237  33.043  13.077  0.00  0.00    +0.127 C 
BRANCH  16  17
ATOM     17  N   UNL     1      21.870  31.850  12.465  0.00  0.00    +0.219 N 
ATOM     18  H   UNL     1      21.628  31.749  11.467  0.00  0.00    +0.199 HD
ATOM     19  H   UNL     1      22.899  31.932  12.489  0.00  0.00    +0.199 HD
ATOM     20  H   UNL     1      21.642  30.960  12.928  0.00  0.00    +0.199 HD
ENDBRANCH  16  17
ENDBRANCH  15  16
ENDBRANCH  14  15
ENDBRANCH  13  14
ENDBRANCH   1  13
BRANCH   1  21
ATOM     21  C   UNL     1      15.789  33.011  13.169  0.00  0.00    +0.207 C 
BRANCH  21  22
ATOM     22  C   UNL     1      16.035  32.947  11.707  0.00  0.00    +0.154 A 
ATOM     23  N   UNL     1      15.482  33.778  10.846  0.00  0.00    -0.227 NA
ATOM     24  C   UNL     1      15.930  33.369   9.611  0.00  0.00    +0.089 A 
ATOM     25  C   UNL     1      15.696  33.919   8.344  0.00  0.00    +0.030 C 
ATOM     26  C   UNL     1      16.265  33.291   7.229  0.00  0.00    +0.002 C 
ATOM     27  C   UNL     1      17.042  32.140   7.373  0.00  0.00    +0.002 C 
ATOM     28  C   UNL     1      17.287  31.578   8.631  0.00  0.00    +0.028 C 
ATOM     29  C   UNL     1      16.720  32.229   9.728  0.00  0.00    +0.066 A 
ATOM     30  N   UNL     1      16.763  31.971  11.075  0.00  0.00    -0.338 N 
ATOM     31  H   UNL     1      17.230  31.182  11.505  0.00  0.00    +0.167 HD
ENDBRANCH  21  22
ENDBRANCH   1  21
TORSDOF 8
