REMARK  Name = =
REMARK  2 active torsions:
REMARK  status: ('A' for Active; 'I' for Inactive)
REMARK    1  A    between atoms: C_1  and  N_17
REMARK    2  A    between atoms: C_15  and  N_17
REMARK                            x       y       z     vdW  Elec       q    Type
REMARK                         _______ _______ _______ _____ _____    ______ ____
ROOT
ATOM      1  C   UNL     1      18.677  34.477  14.055  0.00  0.00    +0.108 C 
ATOM      2  C   UNL     1      19.980  34.976  14.247  0.00  0.00    +0.082 C 
ATOM      3  C   UNL     1      21.109  34.348  13.702  0.00  0.00    +0.106 C 
ATOM      4  N   UNL     1      22.365  34.814  13.906  0.00  0.00    -0.251 NA
ATOM      5  C   UNL     1      23.383  34.132  13.334  0.00  0.00    +0.131 C 
ATOM      6  C   UNL     1      23.167  33.007  12.574  0.00  0.00    +0.131 C 
ATOM      7  N   UNL     1      21.927  32.520  12.355  0.00  0.00    -0.252 NA
ATOM      8  C   UNL     1      20.906  33.189  12.916  0.00  0.00    +0.090 C 
ATOM      9  C   UNL     1      19.617  32.723  12.699  0.00  0.00    +0.033 C 
ATOM     10  C   UNL     1      18.503  33.357  13.251  0.00  0.00    +0.043 C 
ATOM     11 BR   UNL     1      20.201  36.553  15.312  0.00  0.00    -0.045 Br
ENDROOT
BRANCH   1  12
ATOM     12  N   UNL     1      17.574  35.184  14.626  0.00  0.00    -0.208 N 
ATOM     13  H   UNL     1      17.295  36.038  14.149  0.00  0.00    +0.251 HD
BRANCH  12  17
ATOM     14  C   UNL     1      15.315  35.016  17.406  0.00  0.00    +0.221 C 
ATOM     15  C   UNL     1      16.437  34.074  17.866  0.00  0.00    +0.230 C 
ATOM     16  N   UNL     1      17.405  34.089  16.766  0.00  0.00    -0.279 N 
ATOM     17  C   UNL     1      16.942  34.902  15.773  0.00  0.00    +0.334 C 
ATOM     18  N   UNL     1      15.743  35.480  16.085  0.00  0.00    -0.238 N 
ATOM     19  H   UNL     1      18.351  33.733  16.797  0.00  0.00    +0.258 HD
ATOM     20  H   UNL     1      15.233  36.092  15.461  0.00  0.00    +0.244 HD
ENDBRANCH  12  17
ENDBRANCH   1  12
TORSDOF 2
