REMARK  Name = =
REMARK  4 active torsions:
REMARK  status: ('A' for Active; 'I' for Inactive)
REMARK    1  A    between atoms: C_1  and  O_23
REMARK    2  A    between atoms: C_2  and  O_21
REMARK    3  A    between atoms: N_11  and  C_13
REMARK    4  A    between atoms: O_23  and  C_31
REMARK                            x       y       z     vdW  Elec       q    Type
REMARK                         _______ _______ _______ _____ _____    ______ ____
ROOT
ATOM      1  C   UNL     1      17.846  34.120  13.707  0.00  0.00    +0.175 C 
ATOM      2  C   UNL     1      16.553  33.640  13.495  0.00  0.00    +0.164 C 
ATOM      3  C   UNL     1      15.542  34.071  14.357  0.00  0.00    +0.078 C 
ATOM      4  C   UNL     1      15.796  34.939  15.416  0.00  0.00    +0.080 C 
ATOM      5  C   UNL     1      17.104  35.406  15.623  0.00  0.00    +0.044 C 
ATOM      6  C   UNL     1      18.139  34.977  14.762  0.00  0.00    +0.063 C 
ATOM      7  C   UNL     1      17.273  36.265  16.724  0.00  0.00    +0.134 C 
ATOM      8  N   UNL     1      16.252  36.605  17.530  0.00  0.00    -0.220 NA
ATOM      9  C   UNL     1      15.057  36.091  17.236  0.00  0.00    +0.223 C 
ATOM     10  N   UNL     1      14.778  35.281  16.207  0.00  0.00    -0.235 NA
ATOM     11  N   UNL     1      18.544  36.813  16.997  0.00  0.00    -0.297 N 
ATOM     12  H   UNL     1      18.947  37.285  16.200  0.00  0.00    +0.154 HD
ENDROOT
BRANCH  11  13
ATOM     13  C   UNL     1      19.078  37.159  18.254  0.00  0.00    +0.070 C 
ATOM     14  C   UNL     1      20.142  36.458  18.850  0.00  0.00    +0.163 C 
ATOM     15  C   UNL     1      20.626  36.822  20.108  0.00  0.00    +0.078 C 
ATOM     16  C   UNL     1      20.059  37.893  20.795  0.00  0.00    +0.023 C 
ATOM     17  C   UNL     1      19.007  38.604  20.218  0.00  0.00    +0.003 C 
ATOM     18  C   UNL     1      18.524  38.240  18.957  0.00  0.00    +0.026 C 
ATOM     19 CL   UNL     1      21.946  35.971  20.820  0.00  0.00    -0.081 Cl
ATOM     20  F   UNL     1      20.749  35.465  18.177  0.00  0.00    -0.202 F 
ENDBRANCH  11  13
BRANCH   2  21
ATOM     21  O   UNL     1      16.394  32.767  12.450  0.00  0.00    -0.491 OA
ATOM     22  C   UNL     1      15.077  32.622  11.930  0.00  0.00    +0.277 C 
ENDBRANCH   2  21
BRANCH   1  23
ATOM     23  O   UNL     1      18.897  33.669  12.904  0.00  0.00    -0.408 OA
BRANCH  23  31
ATOM     24  C   UNL     1      21.483  35.294  14.239  0.00  0.00    +0.033 C 
ATOM     25  C   UNL     1      21.548  34.262  13.111  0.00  0.00    +0.122 C 
ATOM     26  C   UNL     1      22.958  34.126  12.486  0.00  0.00    +0.153 C 
ATOM     27  N   UNL     1      23.893  33.201  13.250  0.00  0.00    +0.235 N 
ATOM     28  C   UNL     1      23.233  31.865  13.558  0.00  0.00    +0.150 C 
ATOM     29  C   UNL     1      21.891  32.055  14.269  0.00  0.00    +0.162 C 
ATOM     30  N   UNL     1      21.002  32.965  13.548  0.00  0.00    -0.254 N 
ATOM     31  C   UNL     1      19.641  32.665  13.505  0.00  0.00    +0.409 C 
ATOM     32  O   UNL     1      19.187  31.609  13.931  0.00  0.00    -0.226 OA
ATOM     33  C   UNL     1      24.580  33.821  14.430  0.00  0.00    +0.190 C 
ATOM     34  H   UNL     1      24.653  32.984  12.590  0.00  0.00    +0.203 HD
ENDBRANCH  23  31
ENDBRANCH   1  23
TORSDOF 4
