REMARK  Name = =
REMARK  2 active torsions:
REMARK  status: ('A' for Active; 'I' for Inactive)
REMARK    1  A    between atoms: N_15  and  C_18
REMARK    2  A    between atoms: C_18  and  C_19
REMARK                            x       y       z     vdW  Elec       q    Type
REMARK                         _______ _______ _______ _____ _____    ______ ____
ROOT
ATOM      1  C   UNL     1      15.747  34.068   9.838  0.00  0.00    +0.148 C 
ATOM      2  C   UNL     1      17.070  34.093  10.619  0.00  0.00    +0.159 C 
ATOM      3  N   UNL     1      17.521  32.717  10.929  0.00  0.00    -0.291 N 
ATOM      4  C   UNL     1      17.652  31.837   9.748  0.00  0.00    +0.159 C 
ATOM      5  C   UNL     1      16.338  31.801   8.948  0.00  0.00    +0.148 C 
ATOM      6  N   UNL     1      15.890  33.202   8.607  0.00  0.00    +0.229 N 
ATOM      7  C   UNL     1      18.584  32.667  11.777  0.00  0.00    +0.200 A 
ATOM      8  N   UNL     1      19.842  32.765  11.427  0.00  0.00    -0.214 NA
ATOM      9  C   UNL     1      20.555  32.713  12.599  0.00  0.00    +0.091 A 
ATOM     10  C   UNL     1      21.941  32.792  12.801  0.00  0.00    +0.030 C 
ATOM     11  C   UNL     1      22.438  32.711  14.107  0.00  0.00    +0.002 C 
ATOM     12  C   UNL     1      21.572  32.554  15.190  0.00  0.00    +0.002 C 
ATOM     13  C   UNL     1      20.186  32.470  15.008  0.00  0.00    +0.028 C 
ATOM     14  C   UNL     1      19.709  32.556  13.694  0.00  0.00    +0.070 A 
ATOM     15  N   UNL     1      18.448  32.512  13.139  0.00  0.00    -0.307 N 
ATOM     16  H   UNL     1      14.998  33.169   8.099  0.00  0.00    +0.201 HD
ATOM     17  H   UNL     1      16.580  33.630   7.976  0.00  0.00    +0.201 HD
ENDROOT
BRANCH  15  18
ATOM     18  C   UNL     1      17.214  32.221  13.855  0.00  0.00    +0.160 C 
BRANCH  18  19
ATOM     19  C   UNL     1      16.631  33.426  14.554  0.00  0.00    -0.028 C 
ATOM     20  C   UNL     1      15.688  34.229  13.892  0.00  0.00    +0.005 C 
ATOM     21  C   UNL     1      15.121  35.334  14.530  0.00  0.00    +0.000 C 
ATOM     22  C   UNL     1      15.483  35.646  15.839  0.00  0.00    +0.000 C 
ATOM     23  C   UNL     1      16.401  34.845  16.515  0.00  0.00    +0.000 C 
ATOM     24  C   UNL     1      16.966  33.737  15.882  0.00  0.00    +0.005 C 
ENDBRANCH  18  19
ENDBRANCH  15  18
TORSDOF 2
