REMARK  Name = =
REMARK  1 active torsions:
REMARK  status: ('A' for Active; 'I' for Inactive)
REMARK    1  A    between atoms: C_7  and  C_14
REMARK                            x       y       z     vdW  Elec       q    Type
REMARK                         _______ _______ _______ _____ _____    ______ ____
ROOT
ATOM      1  C   UNL     1      21.494  32.879  12.725  0.00  0.00    +0.152 C 
ATOM      2  N   UNL     1      20.222  32.756  13.392  0.00  0.00    -0.314 N 
ATOM      3  C   UNL     1      18.984  32.868  12.811  0.00  0.00    +0.089 A 
ATOM      4  C   UNL     1      18.102  32.682  13.871  0.00  0.00    +0.180 A 
ATOM      5  N   UNL     1      16.759  32.719  13.737  0.00  0.00    -0.234 NA
ATOM      6  C   UNL     1      16.333  32.958  12.474  0.00  0.00    +0.121 C 
ATOM      7  C   UNL     1      17.133  33.159  11.343  0.00  0.00    +0.002 C 
ATOM      8  C   UNL     1      18.523  33.110  11.514  0.00  0.00    +0.039 C 
ATOM      9  N   UNL     1      18.767  32.462  15.043  0.00  0.00    -0.195 NA
ATOM     10  C   UNL     1      20.038  32.512  14.734  0.00  0.00    +0.195 A 
ATOM     11  N   UNL     1      21.054  32.351  15.589  0.00  0.00    -0.329 N 
ATOM     12  H   UNL     1      22.036  32.391  15.359  0.00  0.00    +0.145 HD
ATOM     13  H   UNL     1      20.830  32.174  16.564  0.00  0.00    +0.145 HD
ENDROOT
BRANCH   7  14
ATOM     14  C   UNL     1      16.539  33.416  10.024  0.00  0.00    -0.016 C 
ATOM     15  C   UNL     1      15.839  34.607   9.768  0.00  0.00    +0.008 C 
ATOM     16  C   UNL     1      15.274  34.853   8.514  0.00  0.00    +0.001 C 
ATOM     17  C   UNL     1      15.397  33.911   7.497  0.00  0.00    +0.000 C 
ATOM     18  C   UNL     1      16.086  32.722   7.731  0.00  0.00    +0.001 C 
ATOM     19  C   UNL     1      16.653  32.478   8.985  0.00  0.00    +0.008 C 
ENDBRANCH   7  14
TORSDOF 1
