REMARK  Name = =
REMARK  5 active torsions:
REMARK  status: ('A' for Active; 'I' for Inactive)
REMARK    1  A    between atoms: C_1  and  O_23
REMARK    2  A    between atoms: C_2  and  O_24
REMARK    3  A    between atoms: N_11  and  C_13
REMARK    4  A    between atoms: O_24  and  C_25
REMARK    5  A    between atoms: C_31  and  C_33
REMARK                            x       y       z     vdW  Elec       q    Type
REMARK                         _______ _______ _______ _____ _____    ______ ____
ROOT
ATOM      1  C   UNL     1      19.981  34.787  16.547  0.00  0.00    +0.164 C 
ATOM      2  C   UNL     1      20.533  34.480  15.297  0.00  0.00    +0.163 C 
ATOM      3  C   UNL     1      19.733  34.124  14.223  0.00  0.00    +0.062 C 
ATOM      4  C   UNL     1      18.331  34.069  14.387  0.00  0.00    +0.044 C 
ATOM      5  C   UNL     1      17.766  34.382  15.639  0.00  0.00    +0.080 C 
ATOM      6  C   UNL     1      18.602  34.723  16.703  0.00  0.00    +0.078 C 
ATOM      7  N   UNL     1      16.448  34.374  15.846  0.00  0.00    -0.235 NA
ATOM      8  C   UNL     1      15.672  34.059  14.803  0.00  0.00    +0.223 C 
ATOM      9  N   UNL     1      16.089  33.725  13.579  0.00  0.00    -0.220 NA
ATOM     10  C   UNL     1      17.416  33.722  13.372  0.00  0.00    +0.134 C 
ATOM     11  N   UNL     1      17.892  33.336  12.096  0.00  0.00    -0.297 N 
ATOM     12  H   UNL     1      18.686  32.713  12.149  0.00  0.00    +0.154 HD
ENDROOT
BRANCH  11  13
ATOM     13  C   UNL     1      17.161  33.277  10.893  0.00  0.00    +0.070 C 
ATOM     14  C   UNL     1      17.225  32.181  10.012  0.00  0.00    +0.164 C 
ATOM     15  C   UNL     1      16.545  32.186   8.789  0.00  0.00    +0.096 C 
ATOM     16  C   UNL     1      15.792  33.307   8.428  0.00  0.00    +0.062 C 
ATOM     17  C   UNL     1      15.712  34.401   9.293  0.00  0.00    +0.023 C 
ATOM     18  C   UNL     1      16.388  34.384  10.516  0.00  0.00    +0.028 C 
ATOM     19 CL   UNL     1      14.933  33.410   6.932  0.00  0.00    -0.082 Cl
ATOM     20 CL   UNL     1      16.653  30.791   7.769  0.00  0.00    -0.079 Cl
ATOM     21  F   UNL     1      17.908  31.082  10.375  0.00  0.00    -0.202 F 
ENDBRANCH  11  13
BRANCH   1  23
ATOM     22  C   UNL     1      22.284  35.601  18.665  0.00  0.00    +0.277 C 
ATOM     23  O   UNL     1      20.952  35.149  17.455  0.00  0.00    -0.491 OA
ENDBRANCH   1  23
BRANCH   2  24
ATOM     24  O   UNL     1      21.894  34.544  15.108  0.00  0.00    -0.485 OA
BRANCH  24  25
ATOM     25  C   UNL     1      22.459  33.260  15.484  0.00  0.00    +0.177 C 
ATOM     26  C   UNL     1      24.249  33.642  16.148  0.00  0.00    +0.063 C 
ATOM     27  C   UNL     1      25.768  33.292  14.988  0.00  0.00    +0.111 C 
ATOM     28  N   UNL     1      25.530  32.211  13.513  0.00  0.00    -0.298 N 
ATOM     29  C   UNL     1      23.864  31.814  12.810  0.00  0.00    +0.111 C 
ATOM     30  C   UNL     1      22.290  32.127  13.909  0.00  0.00    +0.063 C 
ATOM     31  C   UNL     1      26.710  31.774  12.942  0.00  0.00    +0.239 C 
ATOM     32  O   UNL     1      27.818  32.129  13.336  0.00  0.00    -0.271 OA
BRANCH  31  33
ATOM     33  C   UNL     1      26.616  30.848  11.797  0.00  0.00    +0.060 C 
ATOM     34  C   UNL     1      27.535  29.898  11.577  0.00  0.00    +0.013 C 
ENDBRANCH  31  33
ENDBRANCH  24  25
ENDBRANCH   2  24
TORSDOF 5
