MODEL 1
REMARK minimizedAffinity -7.61411333
REMARK minimizedRMSD -1
REMARK  Name = 
REMARK  1 active torsions:
REMARK  status: ('A' for Active; 'I' for Inactive)
REMARK    1  A    between atoms: C_12  and  N_15
REMARK                            x       y       z     vdW  Elec       q    Type
REMARK                         _______ _______ _______ _____ _____    ______ ____
ROOT
ATOM      1  C   UNL     1      15.652  28.014   5.612  0.00  0.00    +0.005 C 
ATOM      2  C   UNL     1      14.216  28.509   5.665  0.00  0.00    +0.006 C 
ATOM      3  C   UNL     1      13.927  29.094   7.041  0.00  0.00    +0.056 C 
ATOM      4  C   UNL     1      14.972  30.079   7.501  0.00  0.00    +0.047 A 
ATOM      5  N   UNL     1      14.583  30.889   8.512  0.00  0.00    -0.251 NA
ATOM      6  C   UNL     1      15.462  31.762   9.018  0.00  0.00    +0.073 A 
ATOM      7  C   UNL     1      15.039  32.561  10.073  0.00  0.00    +0.028 A 
ATOM      8  C   UNL     1      15.879  33.499  10.674  0.00  0.00    +0.002 A 
ATOM      9  C   UNL     1      17.178  33.643  10.215  0.00  0.00    +0.001 A 
ATOM     10  C   UNL     1      17.624  32.851   9.156  0.00  0.00    +0.012 A 
ATOM     11  C   UNL     1      16.778  31.899   8.531  0.00  0.00    +0.021 A 
ATOM     12  C   UNL     1      17.162  31.070   7.438  0.00  0.00    +0.039 A 
ATOM     13  C   UNL     1      16.257  30.104   6.954  0.00  0.00    -0.005 A 
ATOM     14  C   UNL     1      16.627  29.171   5.824  0.00  0.00    +0.039 C 
ENDROOT
BRANCH  12  15
ATOM     15  N   UNL     1      18.465  31.120   6.923  0.00  0.00    -0.357 N 
ATOM     16  H   UNL     1      18.670  30.647   6.053  0.00  0.00    +0.142 HD
ATOM     17  H   UNL     1      19.050  31.915   7.134  0.00  0.00    +0.142 HD
ENDBRANCH  12  15
TORSDOF 1
ENDMDL
MODEL 2
REMARK minimizedAffinity -7.32042599
REMARK minimizedRMSD -1
REMARK  Name = 
REMARK  1 active torsions:
REMARK  status: ('A' for Active; 'I' for Inactive)
REMARK    1  A    between atoms: C_12  and  N_15
REMARK                            x       y       z     vdW  Elec       q    Type
REMARK                         _______ _______ _______ _____ _____    ______ ____
ROOT
ATOM      1  C   UNL     1      17.113  33.867  10.488  0.00  0.00    +0.005 C 
ATOM      2  C   UNL     1      16.133  33.102  11.362  0.00  0.00    +0.006 C 
ATOM      3  C   UNL     1      14.995  32.566  10.502  0.00  0.00    +0.056 C 
ATOM      4  C   UNL     1      15.469  31.841   9.269  0.00  0.00    +0.047 A 
ATOM      5  N   UNL     1      14.546  31.040   8.690  0.00  0.00    -0.251 NA
ATOM      6  C   UNL     1      14.864  30.394   7.562  0.00  0.00    +0.073 A 
ATOM      7  C   UNL     1      13.886  29.600   6.978  0.00  0.00    +0.028 A 
ATOM      8  C   UNL     1      14.113  28.890   5.799  0.00  0.00    +0.002 A 
ATOM      9  C   UNL     1      15.351  28.976   5.181  0.00  0.00    +0.001 A 
ATOM     10  C   UNL     1      16.349  29.768   5.750  0.00  0.00    +0.012 A 
ATOM     11  C   UNL     1      16.133  30.489   6.953  0.00  0.00    +0.021 A 
ATOM     12  C   UNL     1      17.110  31.301   7.595  0.00  0.00    +0.039 A 
ATOM     13  C   UNL     1      16.750  32.034   8.745  0.00  0.00    -0.005 A 
ATOM     14  C   UNL     1      17.735  32.943   9.442  0.00  0.00    +0.039 C 
ENDROOT
BRANCH  12  15
ATOM     15  N   UNL     1      18.381  31.476   7.031  0.00  0.00    -0.357 N 
ATOM     16  H   UNL     1      19.107  31.920   7.577  0.00  0.00    +0.142 HD
ATOM     17  H   UNL     1      18.703  30.829   6.327  0.00  0.00    +0.142 HD
ENDBRANCH  12  15
TORSDOF 1
ENDMDL
MODEL 3
REMARK minimizedAffinity -7.27636099
REMARK minimizedRMSD -1
REMARK  Name = 
REMARK  1 active torsions:
REMARK  status: ('A' for Active; 'I' for Inactive)
REMARK    1  A    between atoms: C_12  and  N_15
REMARK                            x       y       z     vdW  Elec       q    Type
REMARK                         _______ _______ _______ _____ _____    ______ ____
ROOT
ATOM      1  C   UNL     1      17.719  32.287  11.094  0.00  0.00    +0.005 C 
ATOM      2  C   UNL     1      16.404  32.737  10.478  0.00  0.00    +0.006 C 
ATOM      3  C   UNL     1      15.336  32.823  11.561  0.00  0.00    +0.056 C 
ATOM      4  C   UNL     1      15.781  33.592  12.778  0.00  0.00    +0.047 A 
ATOM      5  N   UNL     1      14.779  34.013  13.582  0.00  0.00    -0.251 NA
ATOM      6  C   UNL     1      15.083  34.663  14.712  0.00  0.00    +0.073 A 
ATOM      7  C   UNL     1      14.032  35.058  15.529  0.00  0.00    +0.028 A 
ATOM      8  C   UNL     1      14.242  35.736  16.730  0.00  0.00    +0.002 A 
ATOM      9  C   UNL     1      15.536  36.025  17.132  0.00  0.00    +0.001 A 
ATOM     10  C   UNL     1      16.608  35.637  16.327  0.00  0.00    +0.012 A 
ATOM     11  C   UNL     1      16.408  34.953  15.099  0.00  0.00    +0.021 A 
ATOM     12  C   UNL     1      17.452  34.543  14.223  0.00  0.00    +0.039 A 
ATOM     13  C   UNL     1      17.132  33.799  13.069  0.00  0.00    -0.005 A 
ATOM     14  C   UNL     1      18.204  33.303  12.126  0.00  0.00    +0.039 C 
ENDROOT
BRANCH  12  15
ATOM     15  N   UNL     1      18.796  34.762  14.556  0.00  0.00    -0.357 N 
ATOM     16  H   UNL     1      19.510  34.611  13.856  0.00  0.00    +0.142 HD
ATOM     17  H   UNL     1      19.024  35.437  15.270  0.00  0.00    +0.142 HD
ENDBRANCH  12  15
TORSDOF 1
ENDMDL
MODEL 4
REMARK minimizedAffinity -7.16508055
REMARK minimizedRMSD -1
REMARK  Name = 
REMARK  1 active torsions:
REMARK  status: ('A' for Active; 'I' for Inactive)
REMARK    1  A    between atoms: C_12  and  N_15
REMARK                            x       y       z     vdW  Elec       q    Type
REMARK                         _______ _______ _______ _____ _____    ______ ____
ROOT
ATOM      1  C   UNL     1      17.839  32.606  10.511  0.00  0.00    +0.005 C 
ATOM      2  C   UNL     1      16.856  33.694  10.111  0.00  0.00    +0.006 C 
ATOM      3  C   UNL     1      15.696  33.723  11.098  0.00  0.00    +0.056 C 
ATOM      4  C   UNL     1      16.140  33.745  12.539  0.00  0.00    +0.047 A 
ATOM      5  N   UNL     1      15.193  34.144  13.418  0.00  0.00    -0.251 NA
ATOM      6  C   UNL     1      15.483  34.148  14.725  0.00  0.00    +0.073 A 
ATOM      7  C   UNL     1      14.481  34.538  15.604  0.00  0.00    +0.028 A 
ATOM      8  C   UNL     1      14.679  34.572  16.985  0.00  0.00    +0.002 A 
ATOM      9  C   UNL     1      15.908  34.204  17.506  0.00  0.00    +0.001 A 
ATOM     10  C   UNL     1      16.930  33.808  16.641  0.00  0.00    +0.012 A 
ATOM     11  C   UNL     1      16.744  33.776  15.234  0.00  0.00    +0.021 A 
ATOM     12  C   UNL     1      17.746  33.400  14.295  0.00  0.00    +0.039 A 
ATOM     13  C   UNL     1      17.416  33.330  12.926  0.00  0.00    -0.005 A 
ATOM     14  C   UNL     1      18.429  32.896  11.891  0.00  0.00    +0.039 C 
ENDROOT
BRANCH  12  15
ATOM     15  N   UNL     1      19.012  32.980  14.725  0.00  0.00    -0.357 N 
ATOM     16  H   UNL     1      19.754  32.873  14.047  0.00  0.00    +0.142 HD
ATOM     17  H   UNL     1      19.311  33.196  15.665  0.00  0.00    +0.142 HD
ENDBRANCH  12  15
TORSDOF 1
ENDMDL
MODEL 5
REMARK minimizedAffinity -7.12950706
REMARK minimizedRMSD -1
REMARK  Name = 
REMARK  1 active torsions:
REMARK  status: ('A' for Active; 'I' for Inactive)
REMARK    1  A    between atoms: C_12  and  N_15
REMARK                            x       y       z     vdW  Elec       q    Type
REMARK                         _______ _______ _______ _____ _____    ______ ____
ROOT
ATOM      1  C   UNL     1      18.359  32.673  10.881  0.00  0.00    +0.005 C 
ATOM      2  C   UNL     1      19.344  32.347  11.992  0.00  0.00    +0.006 C 
ATOM      3  C   UNL     1      19.265  33.417  13.074  0.00  0.00    +0.056 C 
ATOM      4  C   UNL     1      17.856  33.711  13.520  0.00  0.00    +0.047 A 
ATOM      5  N   UNL     1      17.758  34.352  14.707  0.00  0.00    -0.251 NA
ATOM      6  C   UNL     1      16.547  34.697  15.159  0.00  0.00    +0.073 A 
ATOM      7  C   UNL     1      16.482  35.378  16.368  0.00  0.00    +0.028 A 
ATOM      8  C   UNL     1      15.269  35.787  16.924  0.00  0.00    +0.002 A 
ATOM      9  C   UNL     1      14.087  35.514  16.255  0.00  0.00    +0.001 A 
ATOM     10  C   UNL     1      14.128  34.831  15.038  0.00  0.00    +0.012 A 
ATOM     11  C   UNL     1      15.354  34.403  14.466  0.00  0.00    +0.021 A 
ATOM     12  C   UNL     1      15.468  33.689  13.239  0.00  0.00    +0.039 A 
ATOM     13  C   UNL     1      16.749  33.389  12.732  0.00  0.00    -0.005 A 
ATOM     14  C   UNL     1      16.927  32.670  11.415  0.00  0.00    +0.039 C 
ENDROOT
BRANCH  12  15
ATOM     15  N   UNL     1      14.331  33.393  12.473  0.00  0.00    -0.357 N 
ATOM     16  H   UNL     1      14.413  32.753  11.696  0.00  0.00    +0.142 HD
ATOM     17  H   UNL     1      13.420  33.440  12.904  0.00  0.00    +0.142 HD
ENDBRANCH  12  15
TORSDOF 1
ENDMDL
