REMARK  Name = =
REMARK  4 active torsions:
REMARK  status: ('A' for Active; 'I' for Inactive)
REMARK    1  A    between atoms: C_1  and  O_23
REMARK    2  A    between atoms: C_2  and  O_21
REMARK    3  A    between atoms: N_11  and  C_13
REMARK    4  A    between atoms: O_23  and  C_31
REMARK                            x       y       z     vdW  Elec       q    Type
REMARK                         _______ _______ _______ _____ _____    ______ ____
ROOT
ATOM      1  C   UNL     1      17.658  34.835  15.409  0.00  0.00    +0.175 C 
ATOM      2  C   UNL     1      16.634  35.165  16.299  0.00  0.00    +0.164 C 
ATOM      3  C   UNL     1      15.318  34.897  15.916  0.00  0.00    +0.078 C 
ATOM      4  C   UNL     1      15.009  34.334  14.680  0.00  0.00    +0.080 C 
ATOM      5  C   UNL     1      16.049  34.016  13.791  0.00  0.00    +0.044 C 
ATOM      6  C   UNL     1      17.385  34.283  14.162  0.00  0.00    +0.063 C 
ATOM      7  C   UNL     1      15.646  33.466  12.560  0.00  0.00    +0.134 C 
ATOM      8  N   UNL     1      14.352  33.271  12.253  0.00  0.00    -0.220 NA
ATOM      9  C   UNL     1      13.455  33.622  13.176  0.00  0.00    +0.223 C 
ATOM     10  N   UNL     1      13.724  34.134  14.383  0.00  0.00    -0.235 NA
ATOM     11  N   UNL     1      16.618  33.083  11.612  0.00  0.00    -0.297 N 
ATOM     12  H   UNL     1      17.311  32.456  11.994  0.00  0.00    +0.154 HD
ENDROOT
BRANCH  11  13
ATOM     13  C   UNL     1      16.498  33.091  10.208  0.00  0.00    +0.070 C 
ATOM     14  C   UNL     1      17.071  32.102   9.389  0.00  0.00    +0.163 C 
ATOM     15  C   UNL     1      16.946  32.159   8.000  0.00  0.00    +0.078 C 
ATOM     16  C   UNL     1      16.246  33.206   7.401  0.00  0.00    +0.023 C 
ATOM     17  C   UNL     1      15.667  34.193   8.198  0.00  0.00    +0.003 C 
ATOM     18  C   UNL     1      15.790  34.133   9.589  0.00  0.00    +0.026 C 
ATOM     19 CL   UNL     1      17.631  30.930   7.005  0.00  0.00    -0.081 Cl
ATOM     20  F   UNL     1      17.692  31.047   9.947  0.00  0.00    -0.202 F 
ENDBRANCH  11  13
BRANCH   2  21
ATOM     21  O   UNL     1      17.022  35.743  17.480  0.00  0.00    -0.491 OA
ATOM     22  C   UNL     1      17.049  34.900  18.627  0.00  0.00    +0.277 C 
ENDBRANCH   2  21
BRANCH   1  23
ATOM     23  O   UNL     1      18.984  35.139  15.728  0.00  0.00    -0.408 OA
BRANCH  23  31
ATOM     24  C   UNL     1      22.089  35.954  14.832  0.00  0.00    +0.033 C 
ATOM     25  C   UNL     1      21.233  34.843  14.220  0.00  0.00    +0.122 C 
ATOM     26  C   UNL     1      21.883  34.183  12.980  0.00  0.00    +0.153 C 
ATOM     27  N   UNL     1      22.888  33.089  13.308  0.00  0.00    +0.235 N 
ATOM     28  C   UNL     1      22.321  32.087  14.304  0.00  0.00    +0.150 C 
ATOM     29  C   UNL     1      21.788  32.785  15.558  0.00  0.00    +0.162 C 
ATOM     30  N   UNL     1      20.842  33.854  15.240  0.00  0.00    -0.254 N 
ATOM     31  C   UNL     1      19.727  34.017  16.062  0.00  0.00    +0.409 C 
ATOM     32  O   UNL     1      19.445  33.223  16.952  0.00  0.00    -0.226 OA
ATOM     33  C   UNL     1      24.265  33.571  13.654  0.00  0.00    +0.190 C 
ATOM     34  H   UNL     1      23.008  32.564  12.431  0.00  0.00    +0.203 HD
ENDBRANCH  23  31
ENDBRANCH   1  23
TORSDOF 4
