REMARK  Name = 
REMARK  9 active torsions:
REMARK  status: ('A' for Active; 'I' for Inactive)
REMARK    1  A    between atoms: C_1  and  C_2
REMARK    2  A    between atoms: C_2  and  C_30
REMARK    3  A    between atoms: N_7  and  C_8
REMARK    4  A    between atoms: C_11  and  O_14
REMARK    5  A    between atoms: O_14  and  C_15
REMARK    6  A    between atoms: C_15  and  C_16
REMARK    7  A    between atoms: C_18  and  C_22
REMARK    8  A    between atoms: N_24  and  C_25
REMARK    9  A    between atoms: N_24  and  C_26
REMARK                            x       y       z     vdW  Elec       q    Type
REMARK                         _______ _______ _______ _____ _____    ______ ____
ROOT
ATOM      1  C   UNL     1       1.891   1.368   2.292  0.00  0.00    +0.099 A 
ATOM      2  C   UNL     1       1.166   2.536   2.059  0.00  0.00    +0.064 A 
ATOM      3  C   UNL     1       1.815   3.780   1.933  0.00  0.00    +0.086 A 
ATOM      4  C   UNL     1       3.208   3.852   2.017  0.00  0.00    +0.139 A 
ATOM      5  C   UNL     1       3.922   2.668   2.267  0.00  0.00    +0.050 A 
ATOM      6  C   UNL     1       3.278   1.438   2.403  0.00  0.00    +0.044 A 
ATOM      7 CL   UNL     1       0.761   5.134   1.779  0.00  0.00    -0.080 Cl
ENDROOT
BRANCH   1  14
ATOM      8  C   UNL     1       1.050  -0.187  -0.036  0.00  0.00    +0.093 C 
ATOM      9  C   UNL     1       0.473  -0.528   1.350  0.00  0.00    +0.199 C 
ATOM     10  N   UNL     1       0.517  -1.981   1.492  0.00  0.00    -0.246 N 
ATOM     11  C   UNL     1       0.730  -2.579   2.661  0.00  0.00    +0.347 C 
ATOM     12  N   UNL     1       1.080  -1.883   3.737  0.00  0.00    -0.196 N 
ATOM     13  C   UNL     1       1.383  -0.580   3.632  0.00  0.00    +0.346 C 
ATOM     14  N   UNL     1       1.230   0.097   2.449  0.00  0.00    -0.159 N 
ATOM     15  N   UNL     1       1.841   0.039   4.755  0.00  0.00    -0.253 N 
ATOM     16  N   UNL     1       0.592  -3.917   2.756  0.00  0.00    -0.252 N 
ATOM     17  C   UNL     1      -1.005  -0.109   1.401  0.00  0.00    +0.093 C 
ATOM     18  H   UNL     1       0.315  -2.556   0.678  0.00  0.00    +0.261 HD
ATOM     19  H   UNL     1       1.193  -2.352   4.622  0.00  0.00    +0.270 HD
ATOM     20  H   UNL     1       1.965  -0.428   5.647  0.00  0.00    +0.241 HD
ATOM     21  H   UNL     1       2.032   1.040   4.777  0.00  0.00    +0.241 HD
ATOM     22  H   UNL     1       0.317  -4.494   1.964  0.00  0.00    +0.241 HD
ATOM     23  H   UNL     1       0.740  -4.433   3.618  0.00  0.00    +0.241 HD
ENDBRANCH   1  14
BRANCH   4  24
ATOM     24  O   UNL     1       4.042   4.926   1.939  0.00  0.00    -0.486 OA
BRANCH  24  25
ATOM     25  C   UNL     1       3.710   6.102   1.196  0.00  0.00    +0.264 C 
BRANCH  25  26
ATOM     26  C   UNL     1       3.502   5.885  -0.286  0.00  0.00    -0.010 A 
ATOM     27  C   UNL     1       2.593   6.698  -0.980  0.00  0.00    +0.020 A 
ATOM     28  C   UNL     1       2.445   6.586  -2.369  0.00  0.00    +0.037 A 
ATOM     29  C   UNL     1       3.236   5.681  -3.082  0.00  0.00    +0.013 A 
ATOM     30  C   UNL     1       4.145   4.869  -2.403  0.00  0.00    +0.001 A 
ATOM     31  C   UNL     1       4.282   4.975  -1.016  0.00  0.00    +0.007 A 
BRANCH  28  32
ATOM     32  C   UNL     1       1.548   7.545  -3.060  0.00  0.00    +0.246 C 
ATOM     33  O   UNL     1       1.622   8.722  -2.714  0.00  0.00    -0.270 OA
ATOM     34  N   UNL     1       0.682   7.094  -4.052  0.00  0.00    -0.304 N 
ATOM     35  C   UNL     1       0.305   5.708  -4.276  0.00  0.00    +0.132 C 
ATOM     36  C   UNL     1       0.004   8.082  -4.877  0.00  0.00    +0.132 C 
ENDBRANCH  28  32
ENDBRANCH  25  26
ENDBRANCH  24  25
ENDBRANCH   4  24
TORSDOF 5
