REMARK  Name = =
REMARK  1 active torsions:
REMARK  status: ('A' for Active; 'I' for Inactive)
REMARK    1  A    between atoms: C_9  and  N_12
REMARK                            x       y       z     vdW  Elec       q    Type
REMARK                         _______ _______ _______ _____ _____    ______ ____
ROOT
ATOM      1  C   UNL     1      17.293  35.897  16.038  0.00  0.00    +0.065 C 
ATOM      2  C   UNL     1      17.059  35.065  14.812  0.00  0.00    +0.039 C 
ATOM      3  N   UNL     1      18.139  34.463  14.257  0.00  0.00    -0.252 NA
ATOM      4  C   UNL     1      17.961  33.706  13.159  0.00  0.00    +0.071 C 
ATOM      5  C   UNL     1      16.698  33.518  12.566  0.00  0.00    +0.002 C 
ATOM      6  C   UNL     1      15.597  34.147  13.161  0.00  0.00    +0.012 C 
ATOM      7  C   UNL     1      15.777  34.930  14.297  0.00  0.00    +0.023 C 
ATOM      8  C   UNL     1      16.565  32.716  11.417  0.00  0.00    +0.032 C 
ATOM      9  C   UNL     1      17.676  32.112  10.829  0.00  0.00    +0.025 C 
ATOM     10  C   UNL     1      18.917  32.275  11.439  0.00  0.00    +0.025 C 
ATOM     11  C   UNL     1      19.050  33.073  12.582  0.00  0.00    +0.030 C 
ENDROOT
BRANCH   9  12
ATOM     12  N   UNL     1      17.530  31.271   9.739  0.00  0.00    -0.358 N 
ATOM     13  H   UNL     1      16.659  31.264   9.227  0.00  0.00    +0.142 HD
ATOM     14  H   UNL     1      18.354  30.944   9.252  0.00  0.00    +0.142 HD
ENDBRANCH   9  12
TORSDOF 1
