REMARK  Name = =
REMARK  11 active torsions:
REMARK  status: ('A' for Active; 'I' for Inactive)
REMARK    1  A    between atoms: C_1  and  C_2
REMARK    2  A    between atoms: C_1  and  C_6
REMARK    3  A    between atoms: C_2  and  C_3
REMARK    4  A    between atoms: C_3  and  O_24
REMARK    5  A    between atoms: C_4  and  C_5
REMARK    6  A    between atoms: C_8  and  C_19
REMARK    7  A    between atoms: C_16  and  C_17
REMARK    8  A    between atoms: C_18  and  C_19
REMARK    9  A    between atoms: C_20  and  C_21
REMARK   10  A    between atoms: O_24  and  C_25
REMARK   11  A    between atoms: C_28  and  C_32
REMARK                            x       y       z     vdW  Elec       q    Type
REMARK                         _______ _______ _______ _____ _____    ______ ____
ROOT
ATOM      1  C   UNL     1      21.904  34.318  17.639  0.00  0.00    +0.038 C 
ATOM      2  C   UNL     1      23.300  36.481  17.932  0.00  0.00    +0.257 C 
ATOM      3  O   UNL     1      23.235  37.709  17.996  0.00  0.00    -0.270 OA
ATOM      4  N   UNL     1      23.627  35.747  19.069  0.00  0.00    -0.236 N 
ATOM      5  C   UNL     1      22.830  34.846  19.745  0.00  0.00    +0.310 C 
ATOM      6  O   UNL     1      22.860  34.770  20.970  0.00  0.00    -0.252 OA
ATOM      7  N   UNL     1      21.915  34.146  19.014  0.00  0.00    -0.269 N 
ATOM      8  H   UNL     1      24.130  36.308  19.746  0.00  0.00    +0.159 HD
ATOM      9  H   UNL     1      21.104  33.809  19.517  0.00  0.00    +0.156 HD
ENDROOT
BRANCH   1  11
ATOM     10  C   UNL     1      21.836  32.509  15.130  0.00  0.00    +0.025 C 
ATOM     11  C   UNL     1      22.445  32.900  16.721  0.00  0.00    +0.025 C 
BRANCH  10  12
ATOM     12  C   UNL     1      20.590  33.580  14.382  0.00  0.00    +0.083 C 
ATOM     13 CL   UNL     1      20.270  32.690  12.784  0.00  0.00    -0.080 Cl
ENDBRANCH  10  12
ENDBRANCH   1  11
BRANCH   1  14
ATOM     14  C   UNL     1      20.711  35.470  17.062  0.00  0.00    +0.071 C 
BRANCH  14  15
ATOM     15  C   UNL     1      19.987  35.213  15.432  0.00  0.00    +0.150 C 
BRANCH  15  16
ATOM     16  O   UNL     1      18.951  36.171  15.279  0.00  0.00    -0.435 OA
BRANCH  16  17
ATOM     17  C   UNL     1      17.620  35.760  15.296  0.00  0.00    +0.239 C 
ATOM     18  C   UNL     1      16.889  36.023  16.453  0.00  0.00    +0.103 C 
ATOM     19  C   UNL     1      15.577  35.558  16.527  0.00  0.00    +0.039 C 
ATOM     20  C   UNL     1      15.032  34.837  15.457  0.00  0.00    +0.074 C 
ATOM     21  C   UNL     1      15.839  34.626  14.348  0.00  0.00    +0.127 C 
ATOM     22  N   UNL     1      17.115  35.064  14.247  0.00  0.00    -0.219 NA
ATOM     23 CL   UNL     1      17.549  36.890  17.787  0.00  0.00    -0.078 Cl
BRANCH  20  24
ATOM     24  C   UNL     1      13.629  34.313  15.500  0.00  0.00    +0.419 C 
ATOM     25  F   UNL     1      13.485  33.302  16.398  0.00  0.00    -0.166 F 
ATOM     26  F   UNL     1      12.709  35.255  15.841  0.00  0.00    -0.166 F 
ATOM     27  F   UNL     1      13.226  33.813  14.301  0.00  0.00    -0.166 F 
ENDBRANCH  20  24
ENDBRANCH  16  17
ENDBRANCH  15  16
ENDBRANCH  14  15
ENDBRANCH   1  14
BRANCH   2  28
ATOM     28  C   UNL     1      23.202  35.803  16.530  0.00  0.00    +0.107 C 
BRANCH  28  30
ATOM     29  C   UNL     1      24.843  33.526  15.263  0.00  0.00    +0.039 C 
ATOM     30  C   UNL     1      24.501  34.556  16.645  0.00  0.00    +0.138 C 
ATOM     31  F   UNL     1      25.179  34.371  17.785  0.00  0.00    -0.205 F 
BRANCH  29  32
ATOM     32  C   UNL     1      23.955  33.650  13.719  0.00  0.00    +0.006 C 
ATOM     33  C   UNL     1      22.671  34.816  13.431  0.00  0.00    +0.039 C 
BRANCH  33  34
ATOM     34  C   UNL     1      22.210  35.932  14.765  0.00  0.00    +0.138 C 
ATOM     35  F   UNL     1      21.198  36.745  14.343  0.00  0.00    -0.205 F 
ENDBRANCH  33  34
ENDBRANCH  29  32
ENDBRANCH  28  30
ENDBRANCH   2  28
TORSDOF 11
