REMARK  Name = 
REMARK  7 active torsions:
REMARK  status: ('A' for Active; 'I' for Inactive)
REMARK    1  A    between atoms: C_2  and  C_3
REMARK    2  A    between atoms: C_8  and  C_11
REMARK    3  A    between atoms: C_11  and  N_12
REMARK    4  A    between atoms: C_17  and  N_32
REMARK    5  A    between atoms: C_18  and  C_19
REMARK    6  A    between atoms: C_22  and  O_25
REMARK    7  A    between atoms: O_25  and  C_26
REMARK                            x       y       z     vdW  Elec       q    Type
REMARK                         _______ _______ _______ _____ _____    ______ ____
ROOT
ATOM      1  N   UNL     1      -6.127   2.923  -0.119  0.00  0.00    -0.328 N 
ATOM      2  C   UNL     1      -6.218   4.140   0.500  0.00  0.00    +0.132 A 
ATOM      3  N   UNL     1      -7.100   4.087   1.519  0.00  0.00    -0.220 NA
ATOM      4  C   UNL     1      -7.274   5.195   2.245  0.00  0.00    +0.225 A 
ATOM      5  N   UNL     1      -6.666   6.364   2.050  0.00  0.00    -0.220 NA
ATOM      6  C   UNL     1      -5.822   6.414   1.011  0.00  0.00    +0.129 A 
ATOM      7  C   UNL     1      -5.534   5.318   0.182  0.00  0.00    +0.061 A 
ATOM      8  H   UNL     1      -6.771   2.265   0.311  0.00  0.00    +0.147 HD
ENDROOT
BRANCH   7   9
ATOM      9  C   UNL     1      -4.612   5.474  -0.955  0.00  0.00    -0.011 A 
ATOM     10  C   UNL     1      -3.227   5.601  -0.746  0.00  0.00    +0.012 A 
ATOM     11  C   UNL     1      -2.351   5.767  -1.821  0.00  0.00    +0.047 A 
ATOM     12  C   UNL     1      -2.850   5.796  -3.120  0.00  0.00    +0.128 A 
ATOM     13  C   UNL     1      -4.224   5.716  -3.349  0.00  0.00    +0.047 A 
ATOM     14  C   UNL     1      -5.099   5.556  -2.271  0.00  0.00    +0.012 A 
BRANCH  12  15
ATOM     15  O   UNL     1      -1.946   5.985  -4.139  0.00  0.00    -0.456 OA
BRANCH  15  16
ATOM     16  C   UNL     1      -2.004   5.106  -5.198  0.00  0.00    +0.128 A 
ATOM     17  C   UNL     1      -2.099   3.721  -5.030  0.00  0.00    +0.046 A 
ATOM     18  C   UNL     1      -2.112   2.886  -6.147  0.00  0.00    +0.004 A 
ATOM     19  C   UNL     1      -2.014   3.432  -7.428  0.00  0.00    +0.000 A 
ATOM     20  C   UNL     1      -1.896   4.813  -7.593  0.00  0.00    +0.004 A 
ATOM     21  C   UNL     1      -1.882   5.650  -6.476  0.00  0.00    +0.046 A 
ENDBRANCH  15  16
ENDBRANCH  12  15
ENDBRANCH   7   9
BRANCH   6  22
ATOM     22  N   UNL     1      -5.202   7.646   0.848  0.00  0.00    -0.343 N 
ATOM     23  H   UNL     1      -5.523   8.335   1.517  0.00  0.00    +0.144 HD
ATOM     24  H   UNL     1      -5.036   7.961  -0.097  0.00  0.00    +0.144 HD
ENDBRANCH   6  22
BRANCH   1  25
ATOM     25  C   UNL     1      -5.047   2.349  -0.889  0.00  0.00    +0.106 C 
BRANCH  25  31
ATOM     26  C   UNL     1      -1.114  -0.980   0.932  0.00  0.00    +0.239 C 
ATOM     27  O   UNL     1      -1.540  -1.901   1.625  0.00  0.00    -0.271 OA
ATOM     28  N   UNL     1      -1.705   0.268   0.854  0.00  0.00    -0.298 N 
ATOM     29  C   UNL     1      -2.803   0.585   1.763  0.00  0.00    +0.108 C 
ATOM     30  C   UNL     1      -4.072   0.928   0.986  0.00  0.00    +0.024 C 
ATOM     31  C   UNL     1      -3.809   2.056  -0.029  0.00  0.00    +0.009 C 
ATOM     32  C   UNL     1      -2.623   1.679  -0.934  0.00  0.00    +0.024 C 
ATOM     33  C   UNL     1      -1.385   1.312  -0.118  0.00  0.00    +0.108 C 
BRANCH  26  35
ATOM     34  C   UNL     1       1.233  -0.568   0.313  0.00  0.00    +0.013 C 
ATOM     35  C   UNL     1       0.090  -1.235   0.106  0.00  0.00    +0.060 C 
ENDBRANCH  26  35
ENDBRANCH  25  31
ENDBRANCH   1  25
TORSDOF 7
