REMARK  Name = 
REMARK  6 active torsions:
REMARK  status: ('A' for Active; 'I' for Inactive)
REMARK    1  A    between atoms: C_1  and  O_2
REMARK    2  A    between atoms: O_2  and  C_3
REMARK    3  A    between atoms: C_4  and  O_23
REMARK    4  A    between atoms: N_13  and  C_14
REMARK    5  A    between atoms: O_23  and  C_24
REMARK    6  A    between atoms: C_30  and  C_32
REMARK                            x       y       z     vdW  Elec       q    Type
REMARK                         _______ _______ _______ _____ _____    ______ ____
ROOT
ATOM      1  C   UNL     1       1.422  -1.764  -1.726  0.00  0.00    +0.164 A 
ATOM      2  C   UNL     1       2.731  -1.833  -2.219  0.00  0.00    +0.163 A 
ATOM      3  C   UNL     1       3.034  -2.559  -3.359  0.00  0.00    +0.062 A 
ATOM      4  C   UNL     1       2.006  -3.245  -4.043  0.00  0.00    +0.044 A 
ATOM      5  C   UNL     1       0.685  -3.176  -3.558  0.00  0.00    +0.080 A 
ATOM      6  C   UNL     1       0.416  -2.447  -2.399  0.00  0.00    +0.078 A 
ATOM      7  N   UNL     1      -0.331  -3.780  -4.177  0.00  0.00    -0.235 NA
ATOM      8  C   UNL     1      -0.045  -4.458  -5.294  0.00  0.00    +0.223 A 
ATOM      9  N   UNL     1       1.165  -4.612  -5.838  0.00  0.00    -0.220 NA
ATOM     10  C   UNL     1       2.191  -4.013  -5.210  0.00  0.00    +0.134 A 
ATOM     11  N   UNL     1       3.491  -4.189  -5.740  0.00  0.00    -0.297 N 
ATOM     12  H   UNL     1       4.181  -4.375  -5.025  0.00  0.00    +0.154 HD
ENDROOT
BRANCH  11  13
ATOM     13  C   UNL     1       3.836  -4.625  -7.035  0.00  0.00    +0.070 A 
ATOM     14  C   UNL     1       3.183  -4.169  -8.195  0.00  0.00    +0.164 A 
ATOM     15  C   UNL     1       3.500  -4.677  -9.460  0.00  0.00    +0.096 A 
ATOM     16  C   UNL     1       4.481  -5.667  -9.574  0.00  0.00    +0.062 A 
ATOM     17  C   UNL     1       5.144  -6.127  -8.434  0.00  0.00    +0.023 A 
ATOM     18  C   UNL     1       4.826  -5.607  -7.176  0.00  0.00    +0.028 A 
ATOM     19 CL   UNL     1       4.927  -6.366 -11.091  0.00  0.00    -0.082 Cl
ATOM     20 CL   UNL     1       2.670  -4.050 -10.843  0.00  0.00    -0.079 Cl
ATOM     21  F   UNL     1       2.274  -3.184  -8.096  0.00  0.00    -0.202 F 
ENDBRANCH  11  13
BRANCH   1  23
ATOM     22  C   UNL     1       1.190   0.114   0.896  0.00  0.00    +0.277 C 
ATOM     23  O   UNL     1       1.342  -0.960  -0.609  0.00  0.00    -0.491 OA
ENDBRANCH   1  23
BRANCH   2  24
ATOM     24  O   UNL     1       3.746  -1.159  -1.580  0.00  0.00    -0.485 OA
BRANCH  24  25
ATOM     25  C   UNL     1       3.171  -0.450  -0.451  0.00  0.00    +0.177 C 
ATOM     26  C   UNL     1       2.479  -1.825   0.742  0.00  0.00    +0.063 C 
ATOM     27  C   UNL     1       0.567  -2.170   0.756  0.00  0.00    +0.111 C 
ATOM     28  N   UNL     1      -0.568  -0.921   0.013  0.00  0.00    -0.298 N 
ATOM     29  C   UNL     1       0.008   0.406  -1.142  0.00  0.00    +0.111 C 
ATOM     30  C   UNL     1       1.907   0.821  -1.213  0.00  0.00    +0.063 C 
ATOM     31  C   UNL     1      -1.896  -1.102   0.347  0.00  0.00    +0.239 C 
ATOM     32  O   UNL     1      -2.297  -2.049   1.019  0.00  0.00    -0.271 OA
BRANCH  31  33
ATOM     33  C   UNL     1      -2.870  -0.108  -0.147  0.00  0.00    +0.060 C 
ATOM     34  C   UNL     1      -2.849   1.168   0.261  0.00  0.00    +0.013 C 
ENDBRANCH  31  33
ENDBRANCH  24  25
ENDBRANCH   2  24
TORSDOF 5
