REMARK  Name = =
REMARK  2 active torsions:
REMARK  status: ('A' for Active; 'I' for Inactive)
REMARK    1  A    between atoms: N_15  and  C_18
REMARK    2  A    between atoms: C_18  and  C_19
REMARK                            x       y       z     vdW  Elec       q    Type
REMARK                         _______ _______ _______ _____ _____    ______ ____
ROOT
ATOM      1  C   UNL     1      21.362  33.693  13.265  0.00  0.00    +0.148 C 
ATOM      2  C   UNL     1      20.141  34.398  13.878  0.00  0.00    +0.159 C 
ATOM      3  N   UNL     1      19.539  33.568  14.946  0.00  0.00    -0.291 N 
ATOM      4  C   UNL     1      20.481  33.174  16.016  0.00  0.00    +0.159 C 
ATOM      5  C   UNL     1      21.714  32.470  15.424  0.00  0.00    +0.148 C 
ATOM      6  N   UNL     1      22.346  33.326  14.353  0.00  0.00    +0.229 N 
ATOM      7  C   UNL     1      18.349  34.043  15.404  0.00  0.00    +0.200 A 
ATOM      8  N   UNL     1      18.199  34.956  16.331  0.00  0.00    -0.214 NA
ATOM      9  C   UNL     1      16.846  35.157  16.433  0.00  0.00    +0.091 A 
ATOM     10  C   UNL     1      16.138  36.040  17.262  0.00  0.00    +0.030 C 
ATOM     11  C   UNL     1      14.740  36.063  17.186  0.00  0.00    +0.002 C 
ATOM     12  C   UNL     1      14.061  35.224  16.302  0.00  0.00    +0.002 C 
ATOM     13  C   UNL     1      14.750  34.334  15.469  0.00  0.00    +0.028 C 
ATOM     14  C   UNL     1      16.148  34.328  15.558  0.00  0.00    +0.070 A 
ATOM     15  N   UNL     1      17.135  33.609  14.919  0.00  0.00    -0.307 N 
ATOM     16  H   UNL     1      23.150  32.835  13.943  0.00  0.00    +0.201 HD
ATOM     17  H   UNL     1      22.706  34.188  14.782  0.00  0.00    +0.201 HD
ENDROOT
BRANCH  15  18
ATOM     18  C   UNL     1      16.919  32.501  13.999  0.00  0.00    +0.160 C 
BRANCH  18  19
ATOM     19  C   UNL     1      16.896  32.924  12.550  0.00  0.00    -0.028 C 
ATOM     20  C   UNL     1      17.870  32.436  11.664  0.00  0.00    +0.005 C 
ATOM     21  C   UNL     1      17.853  32.798  10.316  0.00  0.00    +0.000 C 
ATOM     22  C   UNL     1      16.857  33.645   9.835  0.00  0.00    +0.000 C 
ATOM     23  C   UNL     1      15.872  34.120  10.697  0.00  0.00    +0.000 C 
ATOM     24  C   UNL     1      15.884  33.756  12.045  0.00  0.00    +0.005 C 
ENDBRANCH  18  19
ENDBRANCH  15  18
TORSDOF 2
