REMARK  Name = 
REMARK  6 active torsions:
REMARK  status: ('A' for Active; 'I' for Inactive)
REMARK    1  A    between atoms: C_1  and  C_2
REMARK    2  A    between atoms: C_8  and  N_12
REMARK    3  A    between atoms: N_15  and  C_18
REMARK    4  A    between atoms: C_18  and  C_19
REMARK    5  A    between atoms: C_19  and  C_20
REMARK    6  A    between atoms: C_22  and  N_26
REMARK                            x       y       z     vdW  Elec       q    Type
REMARK                         _______ _______ _______ _____ _____    ______ ____
ROOT
ATOM      1  N   UNL     1       1.719   3.099   0.168  0.00  0.00    -0.319 N 
ATOM      2  C   UNL     1       1.940   3.965   1.334  0.00  0.00    +0.156 C 
ATOM      3  C   UNL     1       1.691   5.441   0.959  0.00  0.00    +0.150 C 
ATOM      4  N   UNL     1       2.498   5.857  -0.278  0.00  0.00    +0.238 N 
ATOM      5  C   UNL     1       2.179   4.917  -1.443  0.00  0.00    +0.150 C 
ATOM      6  C   UNL     1       2.423   3.439  -1.076  0.00  0.00    +0.156 C 
ATOM      7  H   UNL     1       2.127   6.782  -0.541  0.00  0.00    +0.203 HD
ENDROOT
BRANCH   1  15
ATOM      8  C   UNL     1      -3.225  -1.218   0.241  0.00  0.00    +0.065 C 
ATOM      9  C   UNL     1      -1.970  -0.399   0.283  0.00  0.00    +0.039 A 
ATOM     10  N   UNL     1      -0.824  -1.038   0.615  0.00  0.00    -0.252 NA
ATOM     11  C   UNL     1       0.322  -0.338   0.664  0.00  0.00    +0.073 A 
ATOM     12  C   UNL     1       0.391   1.044   0.383  0.00  0.00    +0.021 A 
ATOM     13  C   UNL     1      -0.819   1.676   0.042  0.00  0.00    +0.013 A 
ATOM     14  C   UNL     1      -2.008   0.954  -0.009  0.00  0.00    +0.024 A 
ATOM     15  C   UNL     1       1.640   1.725   0.451  0.00  0.00    +0.039 A 
ATOM     16  C   UNL     1       2.791   1.005   0.801  0.00  0.00    +0.024 A 
ATOM     17  C   UNL     1       2.716  -0.356   1.076  0.00  0.00    +0.004 A 
ATOM     18  C   UNL     1       1.486  -1.009   1.004  0.00  0.00    +0.028 A 
ENDBRANCH   1  15
BRANCH   4  19
ATOM     19  C   UNL     1       3.973   6.053   0.016  0.00  0.00    +0.136 C 
BRANCH  19  20
ATOM     20  C   UNL     1       4.702   6.835  -1.089  0.00  0.00    +0.086 C 
BRANCH  20  21
ATOM     21  C   UNL     1       4.085   8.186  -1.361  0.00  0.00    -0.041 A 
ATOM     22  C   UNL     1       4.307   9.264  -0.484  0.00  0.00    +0.027 A 
ATOM     23  C   UNL     1       3.687  10.510  -0.680  0.00  0.00    +0.038 A 
ATOM     24  C   UNL     1       2.836  10.648  -1.781  0.00  0.00    +0.023 A 
ATOM     25  C   UNL     1       2.629   9.594  -2.676  0.00  0.00    +0.002 A 
ATOM     26  C   UNL     1       3.257   8.371  -2.473  0.00  0.00    +0.004 A 
BRANCH  23  27
ATOM     27  N   UNL     1       3.937  11.592   0.200  0.00  0.00    -0.254 N 
ATOM     28  C   UNL     1       4.983  11.590   1.204  0.00  0.00    +0.134 C 
ATOM     29  C   UNL     1       5.045  13.028   1.700  0.00  0.00    +0.125 C 
ATOM     30  N   UNL     1       3.836  13.611   1.207  0.00  0.00    -0.297 N 
ATOM     31  C   UNL     1       3.217  12.801   0.267  0.00  0.00    +0.307 C 
ATOM     32  O   UNL     1       2.215  13.141  -0.337  0.00  0.00    -0.252 OA
ATOM     33  H   UNL     1       3.495  14.547   1.384  0.00  0.00    +0.150 HD
ENDBRANCH  23  27
ENDBRANCH  20  21
ENDBRANCH  19  20
ENDBRANCH   4  19
TORSDOF 5
