REMARK  Name = =
REMARK  1 active torsions:
REMARK  status: ('A' for Active; 'I' for Inactive)
REMARK    1  A    between atoms: C_7  and  C_14
REMARK                            x       y       z     vdW  Elec       q    Type
REMARK                         _______ _______ _______ _____ _____    ______ ____
ROOT
ATOM      1  C   UNL     1      15.104  34.110   7.803  0.00  0.00    +0.152 C 
ATOM      2  N   UNL     1      15.923  33.057   8.347  0.00  0.00    -0.314 N 
ATOM      3  C   UNL     1      16.414  32.986   9.627  0.00  0.00    +0.089 A 
ATOM      4  C   UNL     1      17.141  31.800   9.639  0.00  0.00    +0.180 A 
ATOM      5  N   UNL     1      17.804  31.343  10.723  0.00  0.00    -0.234 NA
ATOM      6  C   UNL     1      17.707  32.143  11.811  0.00  0.00    +0.121 C 
ATOM      7  C   UNL     1      17.005  33.351  11.904  0.00  0.00    +0.002 C 
ATOM      8  C   UNL     1      16.324  33.796  10.763  0.00  0.00    +0.039 C 
ATOM      9  N   UNL     1      17.094  31.172   8.426  0.00  0.00    -0.195 NA
ATOM     10  C   UNL     1      16.360  31.944   7.667  0.00  0.00    +0.195 A 
ATOM     11  N   UNL     1      16.054  31.710   6.385  0.00  0.00    -0.329 N 
ATOM     12  H   UNL     1      15.490  32.302   5.792  0.00  0.00    +0.145 HD
ATOM     13  H   UNL     1      16.416  30.863   5.957  0.00  0.00    +0.145 HD
ENDROOT
BRANCH   7  14
ATOM     14  C   UNL     1      16.987  34.128  13.151  0.00  0.00    -0.016 C 
ATOM     15  C   UNL     1      15.778  34.600  13.688  0.00  0.00    +0.008 C 
ATOM     16  C   UNL     1      15.759  35.340  14.874  0.00  0.00    +0.001 C 
ATOM     17  C   UNL     1      16.949  35.621  15.539  0.00  0.00    +0.000 C 
ATOM     18  C   UNL     1      18.159  35.164  15.021  0.00  0.00    +0.001 C 
ATOM     19  C   UNL     1      18.176  34.423  13.837  0.00  0.00    +0.008 C 
ENDBRANCH   7  14
TORSDOF 1
