MODEL 1
REMARK minimizedAffinity -6.82754326
REMARK minimizedRMSD -1
REMARK  Name = 
REMARK  1 active torsions:
REMARK  status: ('A' for Active; 'I' for Inactive)
REMARK    1  A    between atoms: C_1  and  N_2
REMARK                            x       y       z     vdW  Elec       q    Type
REMARK                         _______ _______ _______ _____ _____    ______ ____
ROOT
ATOM      1  C   UNL     1      18.374  32.655  10.960  0.00  0.00    +0.152 C 
ATOM      2  N   UNL     1      17.196  33.002  11.716  0.00  0.00    -0.315 N 
ATOM      3  C   UNL     1      17.165  33.678  12.913  0.00  0.00    +0.070 A 
ATOM      4  C   UNL     1      15.809  33.761  13.221  0.00  0.00    +0.100 A 
ATOM      5  C   UNL     1      15.411  34.413  14.415  0.00  0.00    +0.028 A 
ATOM      6  C   UNL     1      16.384  34.963  15.273  0.00  0.00    +0.073 A 
ATOM      7  C   UNL     1      17.722  34.852  14.919  0.00  0.00    +0.030 A 
ATOM      8  C   UNL     1      18.153  34.214  13.745  0.00  0.00    +0.030 A 
ATOM      9  N   UNL     1      16.043  35.588  16.415  0.00  0.00    -0.255 NA
ATOM     10  C   UNL     1      14.726  35.675  16.722  0.00  0.00    +0.111 A 
ATOM     11  C   UNL     1      13.707  35.163  15.939  0.00  0.00    +0.020 A 
ATOM     12  C   UNL     1      14.054  34.518  14.761  0.00  0.00    +0.013 A 
ATOM     13  N   UNL     1      15.050  33.155  12.244  0.00  0.00    -0.214 NA
ATOM     14  C   UNL     1      15.902  32.709  11.358  0.00  0.00    +0.194 A 
ATOM     15  N   UNL     1      15.587  32.047  10.240  0.00  0.00    -0.329 N 
ATOM     16  H   UNL     1      14.606  31.870  10.048  0.00  0.00    +0.145 HD
ATOM     17  H   UNL     1      16.243  31.698   9.555  0.00  0.00    +0.145 HD
ENDROOT
TORSDOF 0
ENDMDL
MODEL 2
REMARK minimizedAffinity -6.64938641
REMARK minimizedRMSD -1
REMARK  Name = 
REMARK  1 active torsions:
REMARK  status: ('A' for Active; 'I' for Inactive)
REMARK    1  A    between atoms: C_1  and  N_2
REMARK                            x       y       z     vdW  Elec       q    Type
REMARK                         _______ _______ _______ _____ _____    ______ ____
ROOT
ATOM      1  C   UNL     1      16.433  32.853   7.184  0.00  0.00    +0.152 C 
ATOM      2  N   UNL     1      16.267  33.383   8.515  0.00  0.00    -0.315 N 
ATOM      3  C   UNL     1      16.871  32.916   9.660  0.00  0.00    +0.070 A 
ATOM      4  C   UNL     1      16.391  33.754  10.663  0.00  0.00    +0.100 A 
ATOM      5  C   UNL     1      16.822  33.550  11.998  0.00  0.00    +0.028 A 
ATOM      6  C   UNL     1      17.723  32.507  12.294  0.00  0.00    +0.073 A 
ATOM      7  C   UNL     1      18.169  31.699  11.256  0.00  0.00    +0.030 A 
ATOM      8  C   UNL     1      17.764  31.872   9.923  0.00  0.00    +0.030 A 
ATOM      9  N   UNL     1      18.152  32.283  13.549  0.00  0.00    -0.255 NA
ATOM     10  C   UNL     1      17.693  33.095  14.531  0.00  0.00    +0.111 A 
ATOM     11  C   UNL     1      16.808  34.141  14.330  0.00  0.00    +0.020 A 
ATOM     12  C   UNL     1      16.363  34.375  13.037  0.00  0.00    +0.013 A 
ATOM     13  N   UNL     1      15.528  34.693  10.142  0.00  0.00    -0.214 NA
ATOM     14  C   UNL     1      15.470  34.448   8.858  0.00  0.00    +0.194 A 
ATOM     15  N   UNL     1      14.738  35.127   7.969  0.00  0.00    -0.329 N 
ATOM     16  H   UNL     1      14.175  35.902   8.304  0.00  0.00    +0.145 HD
ATOM     17  H   UNL     1      14.688  34.938   6.978  0.00  0.00    +0.145 HD
ENDROOT
TORSDOF 0
ENDMDL
MODEL 3
REMARK minimizedAffinity -6.5951972
REMARK minimizedRMSD -1
REMARK  Name = 
REMARK  1 active torsions:
REMARK  status: ('A' for Active; 'I' for Inactive)
REMARK    1  A    between atoms: C_1  and  N_2
REMARK                            x       y       z     vdW  Elec       q    Type
REMARK                         _______ _______ _______ _____ _____    ______ ____
ROOT
ATOM      1  C   UNL     1      16.732  36.195  17.402  0.00  0.00    +0.152 C 
ATOM      2  N   UNL     1      16.107  35.539  16.280  0.00  0.00    -0.315 N 
ATOM      3  C   UNL     1      16.750  34.967  15.207  0.00  0.00    +0.070 A 
ATOM      4  C   UNL     1      15.716  34.475  14.414  0.00  0.00    +0.100 A 
ATOM      5  C   UNL     1      16.032  33.809  13.203  0.00  0.00    +0.028 A 
ATOM      6  C   UNL     1      17.378  33.656  12.817  0.00  0.00    +0.073 A 
ATOM      7  C   UNL     1      18.370  34.166  13.644  0.00  0.00    +0.030 A 
ATOM      8  C   UNL     1      18.095  34.831  14.849  0.00  0.00    +0.030 A 
ATOM      9  N   UNL     1      17.716  33.030  11.674  0.00  0.00    -0.255 NA
ATOM     10  C   UNL     1      16.717  32.547  10.897  0.00  0.00    +0.111 A 
ATOM     11  C   UNL     1      15.370  32.654  11.200  0.00  0.00    +0.020 A 
ATOM     12  C   UNL     1      15.019  33.298  12.377  0.00  0.00    +0.013 A 
ATOM     13  N   UNL     1      14.493  34.741  14.988  0.00  0.00    -0.214 NA
ATOM     14  C   UNL     1      14.753  35.379  16.101  0.00  0.00    +0.194 A 
ATOM     15  N   UNL     1      13.844  35.831  16.970  0.00  0.00    -0.329 N 
ATOM     16  H   UNL     1      12.864  35.672  16.763  0.00  0.00    +0.145 HD
ATOM     17  H   UNL     1      14.042  36.327  17.828  0.00  0.00    +0.145 HD
ENDROOT
TORSDOF 0
ENDMDL
MODEL 4
REMARK minimizedAffinity -6.58357143
REMARK minimizedRMSD -1
REMARK  Name = 
REMARK  1 active torsions:
REMARK  status: ('A' for Active; 'I' for Inactive)
REMARK    1  A    between atoms: C_1  and  N_2
REMARK                            x       y       z     vdW  Elec       q    Type
REMARK                         _______ _______ _______ _____ _____    ______ ____
ROOT
ATOM      1  C   UNL     1      15.968  34.117  17.451  0.00  0.00    +0.152 C 
ATOM      2  N   UNL     1      15.657  34.100  16.043  0.00  0.00    -0.315 N 
ATOM      3  C   UNL     1      16.520  33.780  15.020  0.00  0.00    +0.070 A 
ATOM      4  C   UNL     1      15.747  33.912  13.869  0.00  0.00    +0.100 A 
ATOM      5  C   UNL     1      16.337  33.650  12.608  0.00  0.00    +0.028 A 
ATOM      6  C   UNL     1      17.690  33.263  12.532  0.00  0.00    +0.073 A 
ATOM      7  C   UNL     1      18.416  33.147  13.711  0.00  0.00    +0.030 A 
ATOM      8  C   UNL     1      17.865  33.399  14.977  0.00  0.00    +0.030 A 
ATOM      9  N   UNL     1      18.284  33.006  11.352  0.00  0.00    -0.255 NA
ATOM     10  C   UNL     1      17.540  33.131  10.227  0.00  0.00    +0.111 A 
ATOM     11  C   UNL     1      16.207  33.505  10.210  0.00  0.00    +0.020 A 
ATOM     12  C   UNL     1      15.591  33.770  11.424  0.00  0.00    +0.013 A 
ATOM     13  N   UNL     1      14.463  34.299  14.186  0.00  0.00    -0.214 NA
ATOM     14  C   UNL     1      14.436  34.406  15.490  0.00  0.00    +0.194 A 
ATOM     15  N   UNL     1      13.375  34.767  16.219  0.00  0.00    -0.329 N 
ATOM     16  H   UNL     1      12.510  34.976  15.734  0.00  0.00    +0.145 HD
ATOM     17  H   UNL     1      13.352  34.854  17.225  0.00  0.00    +0.145 HD
ENDROOT
TORSDOF 0
ENDMDL
MODEL 5
REMARK minimizedAffinity -6.53459597
REMARK minimizedRMSD -1
REMARK  Name = 
REMARK  1 active torsions:
REMARK  status: ('A' for Active; 'I' for Inactive)
REMARK    1  A    between atoms: C_1  and  N_2
REMARK                            x       y       z     vdW  Elec       q    Type
REMARK                         _______ _______ _______ _____ _____    ______ ____
ROOT
ATOM      1  C   UNL     1      18.903  31.805  11.996  0.00  0.00    +0.152 C 
ATOM      2  N   UNL     1      18.416  32.353  13.237  0.00  0.00    -0.315 N 
ATOM      3  C   UNL     1      17.210  32.986  13.432  0.00  0.00    +0.070 A 
ATOM      4  C   UNL     1      17.217  33.322  14.783  0.00  0.00    +0.100 A 
ATOM      5  C   UNL     1      16.099  33.999  15.332  0.00  0.00    +0.028 A 
ATOM      6  C   UNL     1      15.002  34.324  14.510  0.00  0.00    +0.073 A 
ATOM      7  C   UNL     1      15.047  33.966  13.169  0.00  0.00    +0.030 A 
ATOM      8  C   UNL     1      16.136  33.296  12.591  0.00  0.00    +0.030 A 
ATOM      9  N   UNL     1      13.924  34.967  14.996  0.00  0.00    -0.255 NA
ATOM     10  C   UNL     1      13.922  35.297  16.310  0.00  0.00    +0.111 A 
ATOM     11  C   UNL     1      14.955  35.017  17.187  0.00  0.00    +0.020 A 
ATOM     12  C   UNL     1      16.068  34.355  16.690  0.00  0.00    +0.013 A 
ATOM     13  N   UNL     1      18.387  32.909  15.382  0.00  0.00    -0.214 NA
ATOM     14  C   UNL     1      19.086  32.335  14.437  0.00  0.00    +0.194 A 
ATOM     15  N   UNL     1      20.299  31.792  14.586  0.00  0.00    -0.329 N 
ATOM     16  H   UNL     1      20.725  31.820  15.506  0.00  0.00    +0.145 HD
ATOM     17  H   UNL     1      20.843  31.352  13.857  0.00  0.00    +0.145 HD
ENDROOT
TORSDOF 0
ENDMDL
