REMARK  Name = 
REMARK  2 active torsions:
REMARK  status: ('A' for Active; 'I' for Inactive)
REMARK    1  A    between atoms: C_1  and  C_2
REMARK    2  A    between atoms: N_14  and  C_15
REMARK                            x       y       z     vdW  Elec       q    Type
REMARK                         _______ _______ _______ _____ _____    ______ ____
ROOT
ATOM      1  C   UNL     1       0.859   0.094   0.086  0.00  0.00    +0.067 C 
ATOM      2  C   UNL     1       0.426   1.523   0.154  0.00  0.00    +0.057 A 
ATOM      3  C   UNL     1       1.334   2.554  -0.056  0.00  0.00    +0.134 A 
ATOM      4  N   UNL     1       0.997   3.866  -0.008  0.00  0.00    -0.252 NA
ATOM      5  C   UNL     1      -0.295   4.141   0.258  0.00  0.00    +0.091 A 
ATOM      6  C   UNL     1      -0.730   5.458   0.326  0.00  0.00    +0.032 A 
ATOM      7  C   UNL     1      -2.061   5.802   0.599  0.00  0.00    +0.030 A 
ATOM      8  C   UNL     1      -2.961   4.751   0.806  0.00  0.00    +0.072 A 
ATOM      9  C   UNL     1      -2.574   3.410   0.749  0.00  0.00    +0.118 A 
ATOM     10  C   UNL     1      -1.221   3.095   0.471  0.00  0.00    +0.117 A 
ATOM     11  N   UNL     1      -0.873   1.780   0.422  0.00  0.00    -0.247 NA
ATOM     12  N   UNL     1      -3.661   2.591   0.991  0.00  0.00    -0.212 NA
ATOM     13  C   UNL     1      -4.679   3.386   1.189  0.00  0.00    +0.194 A 
ATOM     14  N   UNL     1      -4.308   4.705   1.089  0.00  0.00    -0.315 N 
ATOM     15  C   UNL     1      -5.188   5.836   1.254  0.00  0.00    +0.152 C 
ATOM     16  N   UNL     1      -5.929   2.997   1.457  0.00  0.00    -0.329 N 
ATOM     17  H   UNL     1      -6.112   2.000   1.512  0.00  0.00    +0.145 HD
ATOM     18  H   UNL     1      -6.720   3.606   1.610  0.00  0.00    +0.145 HD
ENDROOT
TORSDOF 0
