REMARK  Name = 
REMARK  1 active torsions:
REMARK  status: ('A' for Active; 'I' for Inactive)
REMARK    1  A    between atoms: N_6  and  C_7
REMARK                            x       y       z     vdW  Elec       q    Type
REMARK                         _______ _______ _______ _____ _____    ______ ____
ROOT
ATOM      1  C   UNL     1      -0.955   3.247  -0.600  0.00  0.00    +0.108 A 
ATOM      2  C   UNL     1      -0.951   4.318  -1.514  0.00  0.00    +0.082 A 
ATOM      3  C   UNL     1      -1.927   5.324  -1.491  0.00  0.00    +0.106 A 
ATOM      4  N   UNL     1      -1.938   6.343  -2.385  0.00  0.00    -0.251 NA
ATOM      5  C   UNL     1      -2.925   7.260  -2.273  0.00  0.00    +0.131 A 
ATOM      6  C   UNL     1      -3.889   7.174  -1.296  0.00  0.00    +0.131 A 
ATOM      7  N   UNL     1      -3.903   6.170  -0.393  0.00  0.00    -0.252 NA
ATOM      8  C   UNL     1      -2.927   5.253  -0.492  0.00  0.00    +0.090 A 
ATOM      9  C   UNL     1      -2.905   4.215   0.429  0.00  0.00    +0.033 A 
ATOM     10  C   UNL     1      -1.928   3.219   0.392  0.00  0.00    +0.043 A 
ATOM     11 BR   UNL     1       0.429   4.375  -2.842  0.00  0.00    -0.045 Br
ENDROOT
BRANCH   1  17
ATOM     12  C   UNL     1       0.835  -1.068   0.400  0.00  0.00    +0.221 C 
ATOM     13  C   UNL     1      -0.690  -1.027   0.571  0.00  0.00    +0.230 C 
ATOM     14  N   UNL     1      -1.072   0.324   0.151  0.00  0.00    -0.279 N 
ATOM     15  C   UNL     1       0.049   1.015  -0.208  0.00  0.00    +0.334 C 
ATOM     16  N   UNL     1       1.185   0.263  -0.099  0.00  0.00    -0.238 N 
ATOM     17  N   UNL     1       0.086   2.270  -0.674  0.00  0.00    -0.208 N 
ATOM     18  H   UNL     1      -2.010   0.647  -0.044  0.00  0.00    +0.258 HD
ATOM     19  H   UNL     1       2.114   0.613  -0.296  0.00  0.00    +0.244 HD
ATOM     20  H   UNL     1       0.909   2.534  -1.210  0.00  0.00    +0.251 HD
ENDBRANCH   1  17
TORSDOF 1
