REMARK  Name = =
REMARK  0 active torsions:
REMARK  status: ('A' for Active; 'I' for Inactive)
REMARK                            x       y       z     vdW  Elec       q    Type
REMARK                         _______ _______ _______ _____ _____    ______ ____
ROOT
ATOM      1  C   UNL     1      16.433  32.853   7.184  0.00  0.00    +0.152 C 
ATOM      2  N   UNL     1      16.267  33.383   8.515  0.00  0.00    -0.315 N 
ATOM      3  C   UNL     1      16.871  32.916   9.660  0.00  0.00    +0.070 A 
ATOM      4  C   UNL     1      16.391  33.754  10.663  0.00  0.00    +0.100 A 
ATOM      5  C   UNL     1      16.822  33.550  11.998  0.00  0.00    +0.028 C 
ATOM      6  C   UNL     1      17.723  32.507  12.294  0.00  0.00    +0.073 C 
ATOM      7  C   UNL     1      18.169  31.699  11.256  0.00  0.00    +0.030 C 
ATOM      8  C   UNL     1      17.764  31.872   9.923  0.00  0.00    +0.030 C 
ATOM      9  N   UNL     1      18.152  32.283  13.549  0.00  0.00    -0.255 NA
ATOM     10  C   UNL     1      17.693  33.095  14.531  0.00  0.00    +0.111 C 
ATOM     11  C   UNL     1      16.808  34.141  14.330  0.00  0.00    +0.020 C 
ATOM     12  C   UNL     1      16.363  34.375  13.037  0.00  0.00    +0.013 C 
ATOM     13  N   UNL     1      15.528  34.693  10.142  0.00  0.00    -0.214 NA
ATOM     14  C   UNL     1      15.470  34.448   8.858  0.00  0.00    +0.194 A 
ATOM     15  N   UNL     1      14.738  35.127   7.969  0.00  0.00    -0.329 N 
ATOM     16  H   UNL     1      14.175  35.902   8.304  0.00  0.00    +0.145 HD
ATOM     17  H   UNL     1      14.688  34.938   6.978  0.00  0.00    +0.145 HD
ENDROOT
TORSDOF 0
