MODEL 1
REMARK minimizedAffinity -7.70047522
REMARK minimizedRMSD -1
REMARK  Name = 
REMARK  0 active torsions:
REMARK  status: ('A' for Active; 'I' for Inactive)
REMARK                            x       y       z     vdW  Elec       q    Type
REMARK                         _______ _______ _______ _____ _____    ______ ____
ROOT
ATOM      1  C   UNL     1      15.347  34.907   8.573  0.00  0.00    +0.001 A 
ATOM      2  C   UNL     1      16.003  34.587   9.760  0.00  0.00    +0.002 A 
ATOM      3  C   UNL     1      16.580  33.327   9.949  0.00  0.00    +0.026 A 
ATOM      4  C   UNL     1      16.469  32.402   8.904  0.00  0.00    +0.049 A 
ATOM      5  C   UNL     1      15.817  32.692   7.703  0.00  0.00    +0.009 A 
ATOM      6  C   UNL     1      15.248  33.972   7.537  0.00  0.00    +0.010 A 
ATOM      7  C   UNL     1      15.892  31.524   6.884  0.00  0.00    +0.027 A 
ATOM      8  C   UNL     1      16.580  30.562   7.609  0.00  0.00    +0.141 A 
ATOM      9  N   UNL     1      16.925  31.106   8.813  0.00  0.00    -0.339 N 
ATOM     10  N   UNL     1      16.873  29.303   7.233  0.00  0.00    -0.215 NA
ATOM     11  C   UNL     1      16.434  28.988   6.002  0.00  0.00    +0.118 A 
ATOM     12  C   UNL     1      15.723  29.856   5.177  0.00  0.00    +0.044 A 
ATOM     13  C   UNL     1      15.443  31.156   5.607  0.00  0.00    +0.015 A 
ATOM     14  N   UNL     1      16.669  27.688   5.587  0.00  0.00    -0.343 N 
ATOM     15  H   UNL     1      17.432  30.607   9.526  0.00  0.00    +0.167 HD
ATOM     16  H   UNL     1      17.182  27.157   6.281  0.00  0.00    +0.144 HD
ATOM     17  H   UNL     1      16.927  27.547   4.622  0.00  0.00    +0.144 HD
ENDROOT
TORSDOF 0
ENDMDL
MODEL 2
REMARK minimizedAffinity -7.37732363
REMARK minimizedRMSD -1
REMARK  Name = 
REMARK  0 active torsions:
REMARK  status: ('A' for Active; 'I' for Inactive)
REMARK                            x       y       z     vdW  Elec       q    Type
REMARK                         _______ _______ _______ _____ _____    ______ ____
ROOT
ATOM      1  C   UNL     1      15.307  34.534   8.277  0.00  0.00    +0.001 A 
ATOM      2  C   UNL     1      15.770  33.543   7.413  0.00  0.00    +0.002 A 
ATOM      3  C   UNL     1      16.659  32.558   7.853  0.00  0.00    +0.026 A 
ATOM      4  C   UNL     1      17.069  32.608   9.191  0.00  0.00    +0.049 A 
ATOM      5  C   UNL     1      16.625  33.589  10.082  0.00  0.00    +0.009 A 
ATOM      6  C   UNL     1      15.725  34.568   9.612  0.00  0.00    +0.010 A 
ATOM      7  C   UNL     1      17.250  33.335  11.341  0.00  0.00    +0.027 A 
ATOM      8  C   UNL     1      18.055  32.216  11.178  0.00  0.00    +0.141 A 
ATOM      9  N   UNL     1      17.929  31.789   9.888  0.00  0.00    -0.339 N 
ATOM     10  N   UNL     1      18.838  31.627  12.100  0.00  0.00    -0.215 NA
ATOM     11  C   UNL     1      18.801  32.222  13.306  0.00  0.00    +0.118 A 
ATOM     12  C   UNL     1      18.045  33.355  13.598  0.00  0.00    +0.044 A 
ATOM     13  C   UNL     1      17.242  33.933  12.610  0.00  0.00    +0.015 A 
ATOM     14  N   UNL     1      19.628  31.682  14.276  0.00  0.00    -0.343 N 
ATOM     15  H   UNL     1      18.415  30.990   9.515  0.00  0.00    +0.167 HD
ATOM     16  H   UNL     1      20.132  30.872  13.934  0.00  0.00    +0.144 HD
ATOM     17  H   UNL     1      19.269  31.633  15.217  0.00  0.00    +0.144 HD
ENDROOT
TORSDOF 0
ENDMDL
MODEL 3
REMARK minimizedAffinity -7.15621376
REMARK minimizedRMSD -1
REMARK  Name = 
REMARK  0 active torsions:
REMARK  status: ('A' for Active; 'I' for Inactive)
REMARK                            x       y       z     vdW  Elec       q    Type
REMARK                         _______ _______ _______ _____ _____    ______ ____
ROOT
ATOM      1  C   UNL     1      16.150  34.310  12.295  0.00  0.00    +0.001 A 
ATOM      2  C   UNL     1      17.102  33.500  12.913  0.00  0.00    +0.002 A 
ATOM      3  C   UNL     1      17.703  32.440  12.227  0.00  0.00    +0.026 A 
ATOM      4  C   UNL     1      17.309  32.221  10.902  0.00  0.00    +0.049 A 
ATOM      5  C   UNL     1      16.357  33.015  10.255  0.00  0.00    +0.009 A 
ATOM      6  C   UNL     1      15.771  34.080  10.968  0.00  0.00    +0.010 A 
ATOM      7  C   UNL     1      16.203  32.500   8.931  0.00  0.00    +0.027 A 
ATOM      8  C   UNL     1      17.059  31.413   8.813  0.00  0.00    +0.141 A 
ATOM      9  N   UNL     1      17.718  31.265   9.999  0.00  0.00    -0.339 N 
ATOM     10  N   UNL     1      17.233  30.618   7.743  0.00  0.00    -0.215 NA
ATOM     11  C   UNL     1      16.476  30.957   6.684  0.00  0.00    +0.118 A 
ATOM     12  C   UNL     1      15.572  32.016   6.674  0.00  0.00    +0.044 A 
ATOM     13  C   UNL     1      15.424  32.820   7.808  0.00  0.00    +0.015 A 
ATOM     14  N   UNL     1      16.584  30.139   5.572  0.00  0.00    -0.343 N 
ATOM     15  H   UNL     1      18.397  30.542  10.173  0.00  0.00    +0.167 HD
ATOM     16  H   UNL     1      17.263  29.400   5.712  0.00  0.00    +0.144 HD
ATOM     17  H   UNL     1      16.571  30.582   4.666  0.00  0.00    +0.144 HD
ENDROOT
TORSDOF 0
ENDMDL
MODEL 4
REMARK minimizedAffinity -7.13888693
REMARK minimizedRMSD -1
REMARK  Name = 
REMARK  0 active torsions:
REMARK  status: ('A' for Active; 'I' for Inactive)
REMARK                            x       y       z     vdW  Elec       q    Type
REMARK                         _______ _______ _______ _____ _____    ______ ____
ROOT
ATOM      1  C   UNL     1      15.638  35.465  15.878  0.00  0.00    +0.001 A 
ATOM      2  C   UNL     1      14.275  35.294  15.638  0.00  0.00    +0.002 A 
ATOM      3  C   UNL     1      13.823  34.557  14.540  0.00  0.00    +0.026 A 
ATOM      4  C   UNL     1      14.789  34.003  13.690  0.00  0.00    +0.049 A 
ATOM      5  C   UNL     1      16.161  34.157  13.904  0.00  0.00    +0.009 A 
ATOM      6  C   UNL     1      16.590  34.902  15.022  0.00  0.00    +0.010 A 
ATOM      7  C   UNL     1      16.836  33.473  12.847  0.00  0.00    +0.027 A 
ATOM      8  C   UNL     1      15.859  32.928  12.025  0.00  0.00    +0.141 A 
ATOM      9  N   UNL     1      14.640  33.249  12.548  0.00  0.00    -0.339 N 
ATOM     10  N   UNL     1      16.038  32.211  10.901  0.00  0.00    -0.215 NA
ATOM     11  C   UNL     1      17.330  32.017  10.579  0.00  0.00    +0.118 A 
ATOM     12  C   UNL     1      18.403  32.518  11.311  0.00  0.00    +0.044 A 
ATOM     13  C   UNL     1      18.171  33.256  12.475  0.00  0.00    +0.015 A 
ATOM     14  N   UNL     1      17.566  31.325   9.403  0.00  0.00    -0.343 N 
ATOM     15  H   UNL     1      13.765  32.971  12.134  0.00  0.00    +0.167 HD
ATOM     16  H   UNL     1      16.704  31.028   8.960  0.00  0.00    +0.144 HD
ATOM     17  H   UNL     1      18.333  30.670   9.396  0.00  0.00    +0.144 HD
ENDROOT
TORSDOF 0
ENDMDL
MODEL 5
REMARK minimizedAffinity -6.85840797
REMARK minimizedRMSD -1
REMARK  Name = 
REMARK  0 active torsions:
REMARK  status: ('A' for Active; 'I' for Inactive)
REMARK                            x       y       z     vdW  Elec       q    Type
REMARK                         _______ _______ _______ _____ _____    ______ ____
ROOT
ATOM      1  C   UNL     1      14.013  35.452  16.206  0.00  0.00    +0.001 A 
ATOM      2  C   UNL     1      15.167  35.855  16.875  0.00  0.00    +0.002 A 
ATOM      3  C   UNL     1      16.435  35.588  16.351  0.00  0.00    +0.026 A 
ATOM      4  C   UNL     1      16.501  34.898  15.134  0.00  0.00    +0.049 A 
ATOM      5  C   UNL     1      15.362  34.480  14.440  0.00  0.00    +0.009 A 
ATOM      6  C   UNL     1      14.095  34.766  14.989  0.00  0.00    +0.010 A 
ATOM      7  C   UNL     1      15.806  33.809  13.260  0.00  0.00    +0.027 A 
ATOM      8  C   UNL     1      17.193  33.836  13.272  0.00  0.00    +0.141 A 
ATOM      9  N   UNL     1      17.592  34.498  14.397  0.00  0.00    -0.339 N 
ATOM     10  N   UNL     1      18.033  33.311  12.361  0.00  0.00    -0.215 NA
ATOM     11  C   UNL     1      17.411  32.706  11.333  0.00  0.00    +0.118 A 
ATOM     12  C   UNL     1      16.029  32.601  11.206  0.00  0.00    +0.044 A 
ATOM     13  C   UNL     1      15.193  33.163  12.175  0.00  0.00    +0.015 A 
ATOM     14  N   UNL     1      18.233  32.108  10.393  0.00  0.00    -0.343 N 
ATOM     15  H   UNL     1      18.558  34.651  14.641  0.00  0.00    +0.167 HD
ATOM     16  H   UNL     1      19.214  32.246  10.607  0.00  0.00    +0.144 HD
ATOM     17  H   UNL     1      17.962  32.182   9.425  0.00  0.00    +0.144 HD
ENDROOT
TORSDOF 0
ENDMDL
