MODEL 1
REMARK minimizedAffinity -8.43207169
REMARK minimizedRMSD -1
REMARK  Name = 
REMARK  2 active torsions:
REMARK  status: ('A' for Active; 'I' for Inactive)
REMARK    1  A    between atoms: N_15  and  C_16
REMARK    2  A    between atoms: C_16  and  C_17
REMARK                            x       y       z     vdW  Elec       q    Type
REMARK                         _______ _______ _______ _____ _____    ______ ____
ROOT
ATOM      1  C   UNL     1      21.362  33.693  13.265  0.00  0.00    +0.148 C 
ATOM      2  C   UNL     1      20.141  34.398  13.878  0.00  0.00    +0.159 C 
ATOM      3  N   UNL     1      19.539  33.568  14.946  0.00  0.00    -0.291 N 
ATOM      4  C   UNL     1      20.481  33.174  16.016  0.00  0.00    +0.159 C 
ATOM      5  C   UNL     1      21.714  32.470  15.424  0.00  0.00    +0.148 C 
ATOM      6  N   UNL     1      22.346  33.326  14.353  0.00  0.00    +0.229 N 
ATOM      7  C   UNL     1      18.349  34.043  15.404  0.00  0.00    +0.200 A 
ATOM      8  N   UNL     1      18.199  34.956  16.331  0.00  0.00    -0.214 NA
ATOM      9  C   UNL     1      16.846  35.157  16.433  0.00  0.00    +0.091 A 
ATOM     10  C   UNL     1      16.138  36.040  17.262  0.00  0.00    +0.030 A 
ATOM     11  C   UNL     1      14.740  36.063  17.186  0.00  0.00    +0.002 A 
ATOM     12  C   UNL     1      14.061  35.224  16.302  0.00  0.00    +0.002 A 
ATOM     13  C   UNL     1      14.750  34.334  15.469  0.00  0.00    +0.028 A 
ATOM     14  C   UNL     1      16.148  34.328  15.558  0.00  0.00    +0.070 A 
ATOM     15  N   UNL     1      17.135  33.609  14.919  0.00  0.00    -0.307 N 
ATOM     16  H   UNL     1      23.150  32.835  13.943  0.00  0.00    +0.201 HD
ATOM     17  H   UNL     1      22.706  34.188  14.782  0.00  0.00    +0.201 HD
ENDROOT
BRANCH  15  18
ATOM     18  C   UNL     1      16.919  32.501  13.999  0.00  0.00    +0.160 C 
BRANCH  18  19
ATOM     19  C   UNL     1      16.896  32.924  12.550  0.00  0.00    -0.028 A 
ATOM     20  C   UNL     1      17.870  32.436  11.664  0.00  0.00    +0.005 A 
ATOM     21  C   UNL     1      17.853  32.798  10.316  0.00  0.00    +0.000 A 
ATOM     22  C   UNL     1      16.857  33.645   9.835  0.00  0.00    +0.000 A 
ATOM     23  C   UNL     1      15.872  34.120  10.697  0.00  0.00    +0.000 A 
ATOM     24  C   UNL     1      15.884  33.756  12.045  0.00  0.00    +0.005 A 
ENDBRANCH  18  19
ENDBRANCH  15  18
TORSDOF 2
ENDMDL
MODEL 2
REMARK minimizedAffinity -8.25442886
REMARK minimizedRMSD -1
REMARK  Name = 
REMARK  2 active torsions:
REMARK  status: ('A' for Active; 'I' for Inactive)
REMARK    1  A    between atoms: N_15  and  C_16
REMARK    2  A    between atoms: C_16  and  C_17
REMARK                            x       y       z     vdW  Elec       q    Type
REMARK                         _______ _______ _______ _____ _____    ______ ____
ROOT
ATOM      1  C   UNL     1      14.427  33.752  16.925  0.00  0.00    +0.148 C 
ATOM      2  C   UNL     1      15.889  34.184  16.732  0.00  0.00    +0.159 C 
ATOM      3  N   UNL     1      16.142  34.561  15.323  0.00  0.00    -0.291 N 
ATOM      4  C   UNL     1      15.236  35.606  14.799  0.00  0.00    +0.159 C 
ATOM      5  C   UNL     1      13.766  35.195  14.987  0.00  0.00    +0.148 C 
ATOM      6  N   UNL     1      13.498  34.836  16.428  0.00  0.00    +0.229 N 
ATOM      7  C   UNL     1      17.456  34.775  15.040  0.00  0.00    +0.200 A 
ATOM      8  N   UNL     1      18.102  35.899  15.227  0.00  0.00    -0.214 NA
ATOM      9  C   UNL     1      19.398  35.645  14.854  0.00  0.00    +0.091 A 
ATOM     10  C   UNL     1      20.511  36.497  14.872  0.00  0.00    +0.030 A 
ATOM     11  C   UNL     1      21.747  36.003  14.436  0.00  0.00    +0.002 A 
ATOM     12  C   UNL     1      21.869  34.686  13.990  0.00  0.00    +0.002 A 
ATOM     13  C   UNL     1      20.769  33.822  13.963  0.00  0.00    +0.028 A 
ATOM     14  C   UNL     1      19.543  34.334  14.406  0.00  0.00    +0.070 A 
ATOM     15  N   UNL     1      18.277  33.800  14.519  0.00  0.00    -0.307 N 
ATOM     16  H   UNL     1      12.522  34.534  16.538  0.00  0.00    +0.201 HD
ATOM     17  H   UNL     1      13.622  35.674  17.011  0.00  0.00    +0.201 HD
ENDROOT
BRANCH  15  18
ATOM     18  C   UNL     1      17.864  32.486  14.046  0.00  0.00    +0.160 C 
BRANCH  18  19
ATOM     19  C   UNL     1      17.383  32.491  12.615  0.00  0.00    -0.028 A 
ATOM     20  C   UNL     1      18.287  32.226  11.573  0.00  0.00    +0.005 A 
ATOM     21  C   UNL     1      17.857  32.204  10.245  0.00  0.00    +0.000 A 
ATOM     22  C   UNL     1      16.518  32.438   9.942  0.00  0.00    +0.000 A 
ATOM     23  C   UNL     1      15.605  32.682  10.967  0.00  0.00    +0.000 A 
ATOM     24  C   UNL     1      16.032  32.699  12.296  0.00  0.00    +0.005 A 
ENDBRANCH  18  19
ENDBRANCH  15  18
TORSDOF 2
ENDMDL
MODEL 3
REMARK minimizedAffinity -7.98752356
REMARK minimizedRMSD -1
REMARK  Name = 
REMARK  2 active torsions:
REMARK  status: ('A' for Active; 'I' for Inactive)
REMARK    1  A    between atoms: N_15  and  C_16
REMARK    2  A    between atoms: C_16  and  C_17
REMARK                            x       y       z     vdW  Elec       q    Type
REMARK                         _______ _______ _______ _____ _____    ______ ____
ROOT
ATOM      1  C   UNL     1      17.419  36.250  16.787  0.00  0.00    +0.148 C 
ATOM      2  C   UNL     1      17.239  35.887  15.305  0.00  0.00    +0.159 C 
ATOM      3  N   UNL     1      16.845  34.467  15.158  0.00  0.00    -0.291 N 
ATOM      4  C   UNL     1      15.636  34.088  15.919  0.00  0.00    +0.159 C 
ATOM      5  C   UNL     1      15.793  34.447  17.407  0.00  0.00    +0.148 C 
ATOM      6  N   UNL     1      16.168  35.901  17.560  0.00  0.00    +0.229 N 
ATOM      7  C   UNL     1      16.849  34.028  13.870  0.00  0.00    +0.200 A 
ATOM      8  N   UNL     1      15.865  34.161  13.017  0.00  0.00    -0.214 NA
ATOM      9  C   UNL     1      16.323  33.622  11.840  0.00  0.00    +0.091 A 
ATOM     10  C   UNL     1      15.678  33.522  10.599  0.00  0.00    +0.030 A 
ATOM     11  C   UNL     1      16.359  32.922   9.532  0.00  0.00    +0.002 A 
ATOM     12  C   UNL     1      17.654  32.432   9.700  0.00  0.00    +0.002 A 
ATOM     13  C   UNL     1      18.312  32.521  10.932  0.00  0.00    +0.028 A 
ATOM     14  C   UNL     1      17.616  33.127  11.985  0.00  0.00    +0.070 A 
ATOM     15  N   UNL     1      17.927  33.384  13.304  0.00  0.00    -0.307 N 
ATOM     16  H   UNL     1      16.300  36.125  18.554  0.00  0.00    +0.201 HD
ATOM     17  H   UNL     1      15.392  36.485  17.221  0.00  0.00    +0.201 HD
ENDROOT
BRANCH  15  18
ATOM     18  C   UNL     1      19.126  32.933  13.997  0.00  0.00    +0.160 C 
BRANCH  18  19
ATOM     19  C   UNL     1      20.322  33.824  13.762  0.00  0.00    -0.028 A 
ATOM     20  C   UNL     1      21.259  33.489  12.771  0.00  0.00    +0.005 A 
ATOM     21  C   UNL     1      22.360  34.311  12.524  0.00  0.00    +0.000 A 
ATOM     22  C   UNL     1      22.533  35.482  13.257  0.00  0.00    +0.000 A 
ATOM     23  C   UNL     1      21.601  35.839  14.229  0.00  0.00    +0.000 A 
ATOM     24  C   UNL     1      20.496  35.021  14.475  0.00  0.00    +0.005 A 
ENDBRANCH  18  19
ENDBRANCH  15  18
TORSDOF 2
ENDMDL
MODEL 4
REMARK minimizedAffinity -7.94578457
REMARK minimizedRMSD -1
REMARK  Name = 
REMARK  2 active torsions:
REMARK  status: ('A' for Active; 'I' for Inactive)
REMARK    1  A    between atoms: N_15  and  C_16
REMARK    2  A    between atoms: C_16  and  C_17
REMARK                            x       y       z     vdW  Elec       q    Type
REMARK                         _______ _______ _______ _____ _____    ______ ____
ROOT
ATOM      1  C   UNL     1      15.747  34.068   9.838  0.00  0.00    +0.148 C 
ATOM      2  C   UNL     1      17.070  34.093  10.619  0.00  0.00    +0.159 C 
ATOM      3  N   UNL     1      17.521  32.717  10.929  0.00  0.00    -0.291 N 
ATOM      4  C   UNL     1      17.652  31.837   9.748  0.00  0.00    +0.159 C 
ATOM      5  C   UNL     1      16.338  31.801   8.948  0.00  0.00    +0.148 C 
ATOM      6  N   UNL     1      15.890  33.202   8.607  0.00  0.00    +0.229 N 
ATOM      7  C   UNL     1      18.584  32.667  11.777  0.00  0.00    +0.200 A 
ATOM      8  N   UNL     1      19.842  32.765  11.427  0.00  0.00    -0.214 NA
ATOM      9  C   UNL     1      20.555  32.713  12.599  0.00  0.00    +0.091 A 
ATOM     10  C   UNL     1      21.941  32.792  12.801  0.00  0.00    +0.030 A 
ATOM     11  C   UNL     1      22.438  32.711  14.107  0.00  0.00    +0.002 A 
ATOM     12  C   UNL     1      21.572  32.554  15.190  0.00  0.00    +0.002 A 
ATOM     13  C   UNL     1      20.186  32.470  15.008  0.00  0.00    +0.028 A 
ATOM     14  C   UNL     1      19.709  32.556  13.694  0.00  0.00    +0.070 A 
ATOM     15  N   UNL     1      18.448  32.512  13.139  0.00  0.00    -0.307 N 
ATOM     16  H   UNL     1      14.998  33.169   8.099  0.00  0.00    +0.201 HD
ATOM     17  H   UNL     1      16.580  33.630   7.976  0.00  0.00    +0.201 HD
ENDROOT
BRANCH  15  18
ATOM     18  C   UNL     1      17.214  32.221  13.855  0.00  0.00    +0.160 C 
BRANCH  18  19
ATOM     19  C   UNL     1      16.631  33.426  14.554  0.00  0.00    -0.028 A 
ATOM     20  C   UNL     1      15.688  34.229  13.892  0.00  0.00    +0.005 A 
ATOM     21  C   UNL     1      15.121  35.334  14.530  0.00  0.00    +0.000 A 
ATOM     22  C   UNL     1      15.483  35.646  15.839  0.00  0.00    +0.000 A 
ATOM     23  C   UNL     1      16.401  34.845  16.515  0.00  0.00    +0.000 A 
ATOM     24  C   UNL     1      16.966  33.737  15.882  0.00  0.00    +0.005 A 
ENDBRANCH  18  19
ENDBRANCH  15  18
TORSDOF 2
ENDMDL
MODEL 5
REMARK minimizedAffinity -7.85627127
REMARK minimizedRMSD -1
REMARK  Name = 
REMARK  2 active torsions:
REMARK  status: ('A' for Active; 'I' for Inactive)
REMARK    1  A    between atoms: N_15  and  C_16
REMARK    2  A    between atoms: C_16  and  C_17
REMARK                            x       y       z     vdW  Elec       q    Type
REMARK                         _______ _______ _______ _____ _____    ______ ____
ROOT
ATOM      1  C   UNL     1      20.177  34.106  18.147  0.00  0.00    +0.148 C 
ATOM      2  C   UNL     1      19.696  33.466  16.835  0.00  0.00    +0.159 C 
ATOM      3  N   UNL     1      19.985  34.351  15.684  0.00  0.00    -0.291 N 
ATOM      4  C   UNL     1      21.404  34.746  15.560  0.00  0.00    +0.159 C 
ATOM      5  C   UNL     1      21.908  35.386  16.865  0.00  0.00    +0.148 C 
ATOM      6  N   UNL     1      21.638  34.474  18.037  0.00  0.00    +0.229 N 
ATOM      7  C   UNL     1      19.423  33.935  14.517  0.00  0.00    +0.200 A 
ATOM      8  N   UNL     1      19.940  33.059  13.692  0.00  0.00    -0.214 NA
ATOM      9  C   UNL     1      19.017  32.910  12.688  0.00  0.00    +0.091 A 
ATOM     10  C   UNL     1      19.059  32.080  11.558  0.00  0.00    +0.030 A 
ATOM     11  C   UNL     1      17.983  32.104  10.662  0.00  0.00    +0.002 A 
ATOM     12  C   UNL     1      16.888  32.938  10.888  0.00  0.00    +0.002 A 
ATOM     13  C   UNL     1      16.829  33.775  12.009  0.00  0.00    +0.028 A 
ATOM     14  C   UNL     1      17.913  33.734  12.894  0.00  0.00    +0.070 A 
ATOM     15  N   UNL     1      18.205  34.396  14.068  0.00  0.00    -0.307 N 
ATOM     16  H   UNL     1      21.951  34.921  18.908  0.00  0.00    +0.201 HD
ATOM     17  H   UNL     1      22.192  33.613  17.926  0.00  0.00    +0.201 HD
ENDROOT
BRANCH  15  18
ATOM     18  C   UNL     1      17.425  35.480  14.648  0.00  0.00    +0.160 C 
BRANCH  18  19
ATOM     19  C   UNL     1      16.144  35.013  15.297  0.00  0.00    -0.028 A 
ATOM     20  C   UNL     1      14.921  35.181  14.628  0.00  0.00    +0.005 A 
ATOM     21  C   UNL     1      13.728  34.737  15.202  0.00  0.00    +0.000 A 
ATOM     22  C   UNL     1      13.744  34.110  16.446  0.00  0.00    +0.000 A 
ATOM     23  C   UNL     1      14.953  33.917  17.112  0.00  0.00    +0.000 A 
ATOM     24  C   UNL     1      16.148  34.356  16.538  0.00  0.00    +0.005 A 
ENDBRANCH  18  19
ENDBRANCH  15  18
TORSDOF 2
ENDMDL
