REMARK  Name = =
REMARK  0 active torsions:
REMARK  status: ('A' for Active; 'I' for Inactive)
REMARK                            x       y       z     vdW  Elec       q    Type
REMARK                         _______ _______ _______ _____ _____    ______ ____
ROOT
ATOM      1  C   UNL     1      19.696  33.849  13.580  0.00  0.00    +0.046 C 
ATOM      2  C   UNL     1      18.214  33.986  13.783  0.00  0.00    -0.023 C 
ATOM      3  C   UNL     1      17.752  34.635  14.954  0.00  0.00    +0.033 C 
ATOM      4  C   UNL     1      16.414  34.825  15.265  0.00  0.00    +0.073 C 
ATOM      5  C   UNL     1      15.449  34.348  14.364  0.00  0.00    +0.028 C 
ATOM      6  C   UNL     1      14.087  34.528  14.663  0.00  0.00    +0.013 C 
ATOM      7  C   UNL     1      13.732  35.172  15.839  0.00  0.00    +0.020 C 
ATOM      8  C   UNL     1      14.749  35.613  16.668  0.00  0.00    +0.111 C 
ATOM      9  N   UNL     1      16.068  35.452  16.406  0.00  0.00    -0.255 NA
ATOM     10  C   UNL     1      15.853  33.694  13.174  0.00  0.00    +0.100 A 
ATOM     11  C   UNL     1      17.215  33.525  12.898  0.00  0.00    +0.073 A 
ATOM     12  N   UNL     1      17.211  32.867  11.681  0.00  0.00    -0.315 N 
ATOM     13  C   UNL     1      15.902  32.667  11.302  0.00  0.00    +0.194 A 
ATOM     14  N   UNL     1      15.069  33.160  12.178  0.00  0.00    -0.214 NA
ATOM     15  N   UNL     1      15.552  32.042  10.172  0.00  0.00    -0.329 N 
ATOM     16  C   UNL     1      18.343  32.435  10.899  0.00  0.00    +0.152 C 
ATOM     17  H   UNL     1      14.562  31.939   9.972  0.00  0.00    +0.145 HD
ATOM     18  H   UNL     1      16.185  31.650   9.491  0.00  0.00    +0.145 HD
ENDROOT
TORSDOF 0
