MODEL 1
REMARK minimizedAffinity -6.64721823
REMARK minimizedRMSD -1
REMARK  Name = 
REMARK  0 active torsions:
REMARK  status: ('A' for Active; 'I' for Inactive)
REMARK                            x       y       z     vdW  Elec       q    Type
REMARK                         _______ _______ _______ _____ _____    ______ ____
ROOT
ATOM      1  C   UNL     1      15.031  28.166   5.595  0.00  0.00    +0.001 A 
ATOM      2  C   UNL     1      13.853  28.477   6.259  0.00  0.00    +0.002 A 
ATOM      3  C   UNL     1      13.825  29.543   7.163  0.00  0.00    +0.028 A 
ATOM      4  C   UNL     1      14.951  30.313   7.428  0.00  0.00    +0.076 A 
ATOM      5  C   UNL     1      16.146  29.998   6.766  0.00  0.00    +0.040 A 
ATOM      6  C   UNL     1      16.176  28.922   5.843  0.00  0.00    +0.013 A 
ATOM      7  C   UNL     1      17.239  30.814   7.088  0.00  0.00    +0.127 A 
ATOM      8  N   UNL     1      17.158  31.845   7.939  0.00  0.00    -0.221 NA
ATOM      9  C   UNL     1      15.962  32.045   8.506  0.00  0.00    +0.223 A 
ATOM     10  N   UNL     1      14.854  31.323   8.298  0.00  0.00    -0.235 NA
ATOM     11  N   UNL     1      18.488  30.640   6.508  0.00  0.00    -0.343 N 
ATOM     12  H   UNL     1      18.834  29.695   6.440  0.00  0.00    +0.144 HD
ATOM     13  H   UNL     1      19.150  31.335   6.837  0.00  0.00    +0.144 HD
ENDROOT
TORSDOF 0
ENDMDL
MODEL 2
REMARK minimizedAffinity -6.52633572
REMARK minimizedRMSD -1
REMARK  Name = 
REMARK  0 active torsions:
REMARK  status: ('A' for Active; 'I' for Inactive)
REMARK                            x       y       z     vdW  Elec       q    Type
REMARK                         _______ _______ _______ _____ _____    ______ ____
ROOT
ATOM      1  C   UNL     1      17.610  31.725   7.095  0.00  0.00    +0.001 A 
ATOM      2  C   UNL     1      16.635  32.555   7.631  0.00  0.00    +0.002 A 
ATOM      3  C   UNL     1      15.334  32.074   7.809  0.00  0.00    +0.028 A 
ATOM      4  C   UNL     1      14.974  30.778   7.460  0.00  0.00    +0.076 A 
ATOM      5  C   UNL     1      15.953  29.938   6.912  0.00  0.00    +0.040 A 
ATOM      6  C   UNL     1      17.275  30.420   6.738  0.00  0.00    +0.013 A 
ATOM      7  C   UNL     1      15.515  28.648   6.581  0.00  0.00    +0.127 A 
ATOM      8  N   UNL     1      14.264  28.222   6.798  0.00  0.00    -0.221 NA
ATOM      9  C   UNL     1      13.423  29.118   7.328  0.00  0.00    +0.223 A 
ATOM     10  N   UNL     1      13.714  30.379   7.664  0.00  0.00    -0.235 NA
ATOM     11  N   UNL     1      16.365  27.694   6.041  0.00  0.00    -0.343 N 
ATOM     12  H   UNL     1      16.982  27.996   5.302  0.00  0.00    +0.144 HD
ATOM     13  H   UNL     1      15.887  26.813   5.890  0.00  0.00    +0.144 HD
ENDROOT
TORSDOF 0
ENDMDL
MODEL 3
REMARK minimizedAffinity -6.31818914
REMARK minimizedRMSD -1
REMARK  Name = 
REMARK  0 active torsions:
REMARK  status: ('A' for Active; 'I' for Inactive)
REMARK                            x       y       z     vdW  Elec       q    Type
REMARK                         _______ _______ _______ _____ _____    ______ ____
ROOT
ATOM      1  C   UNL     1      13.574  29.597   7.097  0.00  0.00    +0.001 A 
ATOM      2  C   UNL     1      13.845  28.454   6.358  0.00  0.00    +0.002 A 
ATOM      3  C   UNL     1      15.135  28.235   5.865  0.00  0.00    +0.028 A 
ATOM      4  C   UNL     1      16.171  29.133   6.088  0.00  0.00    +0.076 A 
ATOM      5  C   UNL     1      15.902  30.293   6.828  0.00  0.00    +0.040 A 
ATOM      6  C   UNL     1      14.596  30.515   7.336  0.00  0.00    +0.013 A 
ATOM      7  C   UNL     1      16.994  31.153   7.007  0.00  0.00    +0.127 A 
ATOM      8  N   UNL     1      18.220  30.886   6.542  0.00  0.00    -0.221 NA
ATOM      9  C   UNL     1      18.351  29.747   5.852  0.00  0.00    +0.223 A 
ATOM     10  N   UNL     1      17.383  28.859   5.595  0.00  0.00    -0.235 NA
ATOM     11  N   UNL     1      16.893  32.336   7.727  0.00  0.00    -0.343 N 
ATOM     12  H   UNL     1      16.086  32.914   7.548  0.00  0.00    +0.144 HD
ATOM     13  H   UNL     1      17.785  32.816   7.778  0.00  0.00    +0.144 HD
ENDROOT
TORSDOF 0
ENDMDL
MODEL 4
REMARK minimizedAffinity -6.28430796
REMARK minimizedRMSD -1
REMARK  Name = 
REMARK  0 active torsions:
REMARK  status: ('A' for Active; 'I' for Inactive)
REMARK                            x       y       z     vdW  Elec       q    Type
REMARK                         _______ _______ _______ _____ _____    ______ ____
ROOT
ATOM      1  C   UNL     1      16.288  32.188   8.106  0.00  0.00    +0.001 A 
ATOM      2  C   UNL     1      17.335  31.821   7.272  0.00  0.00    +0.002 A 
ATOM      3  C   UNL     1      17.197  30.713   6.431  0.00  0.00    +0.028 A 
ATOM      4  C   UNL     1      16.034  29.952   6.400  0.00  0.00    +0.076 A 
ATOM      5  C   UNL     1      14.976  30.314   7.245  0.00  0.00    +0.040 A 
ATOM      6  C   UNL     1      15.110  31.442   8.094  0.00  0.00    +0.013 A 
ATOM      7  C   UNL     1      13.840  29.498   7.162  0.00  0.00    +0.127 A 
ATOM      8  N   UNL     1      13.742  28.464   6.318  0.00  0.00    -0.221 NA
ATOM      9  C   UNL     1      14.818  28.220   5.561  0.00  0.00    +0.223 A 
ATOM     10  N   UNL     1      15.965  28.909   5.566  0.00  0.00    -0.235 NA
ATOM     11  N   UNL     1      12.704  29.732   7.924  0.00  0.00    -0.343 N 
ATOM     12  H   UNL     1      12.844  29.948   8.900  0.00  0.00    +0.144 HD
ATOM     13  H   UNL     1      11.972  29.062   7.716  0.00  0.00    +0.144 HD
ENDROOT
TORSDOF 0
ENDMDL
MODEL 5
REMARK minimizedAffinity -6.25813103
REMARK minimizedRMSD -1
REMARK  Name = 
REMARK  0 active torsions:
REMARK  status: ('A' for Active; 'I' for Inactive)
REMARK                            x       y       z     vdW  Elec       q    Type
REMARK                         _______ _______ _______ _____ _____    ______ ____
ROOT
ATOM      1  C   UNL     1      17.949  29.231   5.463  0.00  0.00    +0.001 A 
ATOM      2  C   UNL     1      18.242  30.278   6.327  0.00  0.00    +0.002 A 
ATOM      3  C   UNL     1      17.234  30.819   7.131  0.00  0.00    +0.028 A 
ATOM      4  C   UNL     1      15.929  30.342   7.096  0.00  0.00    +0.076 A 
ATOM      5  C   UNL     1      15.625  29.290   6.220  0.00  0.00    +0.040 A 
ATOM      6  C   UNL     1      16.647  28.735   5.409  0.00  0.00    +0.013 A 
ATOM      7  C   UNL     1      14.289  28.867   6.236  0.00  0.00    +0.127 A 
ATOM      8  N   UNL     1      13.364  29.396   7.047  0.00  0.00    -0.221 NA
ATOM      9  C   UNL     1      13.778  30.393   7.838  0.00  0.00    +0.223 A 
ATOM     10  N   UNL     1      15.015  30.899   7.897  0.00  0.00    -0.235 NA
ATOM     11  N   UNL     1      13.833  27.828   5.438  0.00  0.00    -0.343 N 
ATOM     12  H   UNL     1      14.133  27.825   4.475  0.00  0.00    +0.144 HD
ATOM     13  H   UNL     1      12.849  27.640   5.599  0.00  0.00    +0.144 HD
ENDROOT
TORSDOF 0
ENDMDL
