MODEL 1
REMARK minimizedAffinity -6.10959148
REMARK minimizedRMSD -1
REMARK  Name = 
REMARK  2 active torsions:
REMARK  status: ('A' for Active; 'I' for Inactive)
REMARK    1  A    between atoms: C_1  and  C_2
REMARK    2  A    between atoms: C_7  and  C_8
REMARK                            x       y       z     vdW  Elec       q    Type
REMARK                         _______ _______ _______ _____ _____    ______ ____
ROOT
ATOM      1  C   UNL     1      18.556  29.172   5.381  0.00  0.00    +0.044 C 
ATOM      2  C   UNL     1      17.293  29.529   6.121  0.00  0.00    -0.045 A 
ATOM      3  C   UNL     1      16.240  28.591   6.147  0.00  0.00    +0.031 A 
ATOM      4  C   UNL     1      15.081  28.944   6.841  0.00  0.00    +0.066 A 
ATOM      5  C   UNL     1      14.926  30.158   7.497  0.00  0.00    +0.089 A 
ATOM      6  C   UNL     1      15.976  31.086   7.471  0.00  0.00    +0.033 A 
ATOM      7  C   UNL     1      17.166  30.770   6.784  0.00  0.00    -0.045 A 
ATOM      8  C   UNL     1      18.279  31.783   6.767  0.00  0.00    +0.044 C 
ATOM      9  N   UNL     1      13.691  30.239   8.094  0.00  0.00    -0.236 NA
ATOM     10  C   UNL     1      13.099  29.102   7.813  0.00  0.00    +0.197 A 
ATOM     11  N   UNL     1      13.897  28.288   7.060  0.00  0.00    -0.344 N 
ATOM     12  H   UNL     1      13.658  27.367   6.725  0.00  0.00    +0.167 HD
ENDROOT
TORSDOF 0
ENDMDL
MODEL 2
REMARK minimizedAffinity -6.05876207
REMARK minimizedRMSD -1
REMARK  Name = 
REMARK  2 active torsions:
REMARK  status: ('A' for Active; 'I' for Inactive)
REMARK    1  A    between atoms: C_1  and  C_2
REMARK    2  A    between atoms: C_7  and  C_8
REMARK                            x       y       z     vdW  Elec       q    Type
REMARK                         _______ _______ _______ _____ _____    ______ ____
ROOT
ATOM      1  C   UNL     1      18.347  31.787   6.747  0.00  0.00    +0.044 C 
ATOM      2  C   UNL     1      17.205  30.804   6.793  0.00  0.00    -0.045 A 
ATOM      3  C   UNL     1      16.036  31.163   7.495  0.00  0.00    +0.031 A 
ATOM      4  C   UNL     1      14.992  30.236   7.521  0.00  0.00    +0.066 A 
ATOM      5  C   UNL     1      15.056  28.999   6.895  0.00  0.00    +0.089 A 
ATOM      6  C   UNL     1      16.219  28.647   6.197  0.00  0.00    +0.033 A 
ATOM      7  C   UNL     1      17.297  29.554   6.142  0.00  0.00    -0.045 A 
ATOM      8  C   UNL     1      18.539  29.153   5.389  0.00  0.00    +0.044 C 
ATOM      9  N   UNL     1      13.892  28.292   7.083  0.00  0.00    -0.236 NA
ATOM     10  C   UNL     1      13.128  29.077   7.808  0.00  0.00    +0.197 A 
ATOM     11  N   UNL     1      13.748  30.260   8.096  0.00  0.00    -0.344 N 
ATOM     12  H   UNL     1      13.358  31.017   8.637  0.00  0.00    +0.167 HD
ENDROOT
TORSDOF 0
ENDMDL
MODEL 3
REMARK minimizedAffinity -5.88308382
REMARK minimizedRMSD -1
REMARK  Name = 
REMARK  2 active torsions:
REMARK  status: ('A' for Active; 'I' for Inactive)
REMARK    1  A    between atoms: C_1  and  C_2
REMARK    2  A    between atoms: C_7  and  C_8
REMARK                            x       y       z     vdW  Elec       q    Type
REMARK                         _______ _______ _______ _____ _____    ______ ____
ROOT
ATOM      1  C   UNL     1      16.401  27.769   5.840  0.00  0.00    +0.044 C 
ATOM      2  C   UNL     1      15.973  29.105   6.392  0.00  0.00    -0.045 A 
ATOM      3  C   UNL     1      16.933  30.133   6.486  0.00  0.00    +0.031 A 
ATOM      4  C   UNL     1      16.510  31.362   6.999  0.00  0.00    +0.066 A 
ATOM      5  C   UNL     1      15.208  31.608   7.411  0.00  0.00    +0.089 A 
ATOM      6  C   UNL     1      14.257  30.584   7.314  0.00  0.00    +0.033 A 
ATOM      7  C   UNL     1      14.638  29.328   6.799  0.00  0.00    -0.045 A 
ATOM      8  C   UNL     1      13.601  28.240   6.707  0.00  0.00    +0.044 C 
ATOM      9  N   UNL     1      15.073  32.896   7.871  0.00  0.00    -0.236 NA
ATOM     10  C   UNL     1      16.266  33.431   7.745  0.00  0.00    +0.197 A 
ATOM     11  N   UNL     1      17.165  32.546   7.223  0.00  0.00    -0.344 N 
ATOM     12  H   UNL     1      18.139  32.731   7.036  0.00  0.00    +0.167 HD
ENDROOT
TORSDOF 0
ENDMDL
MODEL 4
REMARK minimizedAffinity -5.86181641
REMARK minimizedRMSD -1
REMARK  Name = 
REMARK  2 active torsions:
REMARK  status: ('A' for Active; 'I' for Inactive)
REMARK    1  A    between atoms: C_1  and  C_2
REMARK    2  A    between atoms: C_7  and  C_8
REMARK                            x       y       z     vdW  Elec       q    Type
REMARK                         _______ _______ _______ _____ _____    ______ ____
ROOT
ATOM      1  C   UNL     1      13.591  28.166   6.642  0.00  0.00    +0.044 C 
ATOM      2  C   UNL     1      14.606  29.272   6.772  0.00  0.00    -0.045 A 
ATOM      3  C   UNL     1      14.186  30.515   7.289  0.00  0.00    +0.031 A 
ATOM      4  C   UNL     1      15.146  31.522   7.401  0.00  0.00    +0.066 A 
ATOM      5  C   UNL     1      16.474  31.353   7.034  0.00  0.00    +0.089 A 
ATOM      6  C   UNL     1      16.888  30.116   6.523  0.00  0.00    +0.033 A 
ATOM      7  C   UNL     1      15.952  29.069   6.394  0.00  0.00    -0.045 A 
ATOM      8  C   UNL     1      16.419  27.749   5.840  0.00  0.00    +0.044 C 
ATOM      9  N   UNL     1      17.194  32.504   7.250  0.00  0.00    -0.236 NA
ATOM     10  C   UNL     1      16.329  33.362   7.740  0.00  0.00    +0.197 A 
ATOM     11  N   UNL     1      15.082  32.816   7.850  0.00  0.00    -0.344 N 
ATOM     12  H   UNL     1      14.259  33.283   8.201  0.00  0.00    +0.167 HD
ENDROOT
TORSDOF 0
ENDMDL
MODEL 5
REMARK minimizedAffinity -5.85245752
REMARK minimizedRMSD -1
REMARK  Name = 
REMARK  2 active torsions:
REMARK  status: ('A' for Active; 'I' for Inactive)
REMARK    1  A    between atoms: C_1  and  C_2
REMARK    2  A    between atoms: C_7  and  C_8
REMARK                            x       y       z     vdW  Elec       q    Type
REMARK                         _______ _______ _______ _____ _____    ______ ____
ROOT
ATOM      1  C   UNL     1      15.348  35.111   8.977  0.00  0.00    +0.044 C 
ATOM      2  C   UNL     1      15.860  33.743   8.606  0.00  0.00    -0.045 A 
ATOM      3  C   UNL     1      15.435  33.173   7.388  0.00  0.00    +0.031 A 
ATOM      4  C   UNL     1      15.926  31.906   7.067  0.00  0.00    +0.066 A 
ATOM      5  C   UNL     1      16.800  31.198   7.880  0.00  0.00    +0.089 A 
ATOM      6  C   UNL     1      17.221  31.769   9.088  0.00  0.00    +0.033 A 
ATOM      7  C   UNL     1      16.753  33.049   9.452  0.00  0.00    -0.045 A 
ATOM      8  C   UNL     1      17.216  33.642  10.756  0.00  0.00    +0.044 C 
ATOM      9  N   UNL     1      17.117  29.983   7.321  0.00  0.00    -0.236 NA
ATOM     10  C   UNL     1      16.454  29.944   6.188  0.00  0.00    +0.197 A 
ATOM     11  N   UNL     1      15.723  31.081   5.991  0.00  0.00    -0.344 N 
ATOM     12  H   UNL     1      15.136  31.277   5.194  0.00  0.00    +0.167 HD
ENDROOT
TORSDOF 0
ENDMDL
