MODEL 1
REMARK minimizedAffinity -7.87204313
REMARK minimizedRMSD -1
REMARK  Name = 
REMARK  2 active torsions:
REMARK  status: ('A' for Active; 'I' for Inactive)
REMARK    1  A    between atoms: C_3  and  N_16
REMARK    2  A    between atoms: C_11  and  N_13
REMARK                            x       y       z     vdW  Elec       q    Type
REMARK                         _______ _______ _______ _____ _____    ______ ____
ROOT
ATOM      1  C   UNL     1      17.048  35.538  16.380  0.00  0.00    +0.012 A 
ATOM      2  C   UNL     1      15.884  35.933  17.040  0.00  0.00    +0.023 A 
ATOM      3  C   UNL     1      14.635  35.592  16.528  0.00  0.00    +0.027 A 
ATOM      4  C   UNL     1      14.575  34.826  15.358  0.00  0.00    +0.051 A 
ATOM      5  C   UNL     1      15.717  34.416  14.675  0.00  0.00    +0.073 A 
ATOM      6  N   UNL     1      15.598  33.688  13.546  0.00  0.00    -0.247 NA
ATOM      7  C   UNL     1      16.709  33.295  12.893  0.00  0.00    +0.073 A 
ATOM      8  C   UNL     1      18.001  33.616  13.347  0.00  0.00    +0.001 A 
ATOM      9  C   UNL     1      19.130  33.185  12.637  0.00  0.00    +0.012 A 
ATOM     10  C   UNL     1      18.982  32.435  11.472  0.00  0.00    +0.023 A 
ATOM     11  C   UNL     1      17.712  32.106  11.004  0.00  0.00    +0.027 A 
ATOM     12  C   UNL     1      16.596  32.544  11.726  0.00  0.00    +0.051 A 
ATOM     13  C   UNL     1      18.116  34.370  14.519  0.00  0.00    +0.020 A 
ATOM     14  C   UNL     1      16.968  34.784  15.201  0.00  0.00    +0.001 A 
ENDROOT
BRANCH  11  15
ATOM     15  N   UNL     1      17.562  31.365   9.848  0.00  0.00    -0.358 N 
ATOM     16  H   UNL     1      18.368  31.047   9.327  0.00  0.00    +0.142 HD
ATOM     17  H   UNL     1      16.642  31.123   9.507  0.00  0.00    +0.142 HD
ENDBRANCH  11  15
BRANCH   3  18
ATOM     18  N   UNL     1      13.482  35.935  17.211  0.00  0.00    -0.358 N 
ATOM     19  H   UNL     1      12.577  35.756  16.798  0.00  0.00    +0.142 HD
ATOM     20  H   UNL     1      13.525  36.555  18.008  0.00  0.00    +0.142 HD
ENDBRANCH   3  18
TORSDOF 2
ENDMDL
MODEL 2
REMARK minimizedAffinity -7.86808252
REMARK minimizedRMSD -1
REMARK  Name = 
REMARK  2 active torsions:
REMARK  status: ('A' for Active; 'I' for Inactive)
REMARK    1  A    between atoms: C_3  and  N_16
REMARK    2  A    between atoms: C_11  and  N_13
REMARK                            x       y       z     vdW  Elec       q    Type
REMARK                         _______ _______ _______ _____ _____    ______ ____
ROOT
ATOM      1  C   UNL     1      19.157  33.233  12.612  0.00  0.00    +0.012 A 
ATOM      2  C   UNL     1      18.993  32.462  11.461  0.00  0.00    +0.023 A 
ATOM      3  C   UNL     1      17.719  32.093  11.037  0.00  0.00    +0.027 A 
ATOM      4  C   UNL     1      16.612  32.535  11.772  0.00  0.00    +0.051 A 
ATOM      5  C   UNL     1      16.740  33.305  12.925  0.00  0.00    +0.073 A 
ATOM      6  N   UNL     1      15.640  33.693  13.599  0.00  0.00    -0.247 NA
ATOM      7  C   UNL     1      15.774  34.440  14.712  0.00  0.00    +0.073 A 
ATOM      8  C   UNL     1      17.030  34.835  15.203  0.00  0.00    +0.001 A 
ATOM      9  C   UNL     1      17.125  35.614  16.366  0.00  0.00    +0.012 A 
ATOM     10  C   UNL     1      15.972  36.001  17.046  0.00  0.00    +0.023 A 
ATOM     11  C   UNL     1      14.718  35.620  16.577  0.00  0.00    +0.027 A 
ATOM     12  C   UNL     1      14.642  34.844  15.415  0.00  0.00    +0.051 A 
ATOM     13  C   UNL     1      18.168  34.430  14.499  0.00  0.00    +0.020 A 
ATOM     14  C   UNL     1      18.037  33.654  13.344  0.00  0.00    +0.001 A 
ENDROOT
BRANCH  11  15
ATOM     15  N   UNL     1      13.573  36.001  17.251  0.00  0.00    -0.358 N 
ATOM     16  H   UNL     1      13.627  36.563  18.089  0.00  0.00    +0.142 HD
ATOM     17  H   UNL     1      12.661  35.727  16.912  0.00  0.00    +0.142 HD
ENDBRANCH  11  15
BRANCH   3  18
ATOM     18  N   UNL     1      17.551  31.376   9.867  0.00  0.00    -0.358 N 
ATOM     19  H   UNL     1      16.634  31.042   9.603  0.00  0.00    +0.142 HD
ATOM     20  H   UNL     1      18.352  30.990   9.384  0.00  0.00    +0.142 HD
ENDBRANCH   3  18
TORSDOF 2
ENDMDL
MODEL 3
REMARK minimizedAffinity -7.78256989
REMARK minimizedRMSD -1
REMARK  Name = 
REMARK  2 active torsions:
REMARK  status: ('A' for Active; 'I' for Inactive)
REMARK    1  A    between atoms: C_3  and  N_16
REMARK    2  A    between atoms: C_11  and  N_13
REMARK                            x       y       z     vdW  Elec       q    Type
REMARK                         _______ _______ _______ _____ _____    ______ ____
ROOT
ATOM      1  C   UNL     1      15.572  33.477   8.092  0.00  0.00    +0.012 A 
ATOM      2  C   UNL     1      15.496  32.700   6.937  0.00  0.00    +0.023 A 
ATOM      3  C   UNL     1      16.192  31.498   6.851  0.00  0.00    +0.027 A 
ATOM      4  C   UNL     1      16.944  31.076   7.955  0.00  0.00    +0.051 A 
ATOM      5  C   UNL     1      17.041  31.827   9.122  0.00  0.00    +0.073 A 
ATOM      6  N   UNL     1      17.787  31.377  10.150  0.00  0.00    -0.247 NA
ATOM      7  C   UNL     1      17.874  32.111  11.277  0.00  0.00    +0.073 A 
ATOM      8  C   UNL     1      17.208  33.340  11.425  0.00  0.00    +0.001 A 
ATOM      9  C   UNL     1      17.324  34.071  12.616  0.00  0.00    +0.012 A 
ATOM     10  C   UNL     1      18.104  33.585  13.664  0.00  0.00    +0.023 A 
ATOM     11  C   UNL     1      18.772  32.370  13.538  0.00  0.00    +0.027 A 
ATOM     12  C   UNL     1      18.644  31.653  12.343  0.00  0.00    +0.051 A 
ATOM     13  C   UNL     1      16.434  33.800  10.356  0.00  0.00    +0.020 A 
ATOM     14  C   UNL     1      16.341  33.046   9.182  0.00  0.00    +0.001 A 
ENDROOT
BRANCH  11  15
ATOM     15  N   UNL     1      19.547  31.887  14.575  0.00  0.00    -0.358 N 
ATOM     16  H   UNL     1      19.639  32.403  15.438  0.00  0.00    +0.142 HD
ATOM     17  H   UNL     1      20.033  31.004  14.487  0.00  0.00    +0.142 HD
ENDBRANCH  11  15
BRANCH   3  18
ATOM     18  N   UNL     1      16.074  30.699   5.728  0.00  0.00    -0.358 N 
ATOM     19  H   UNL     1      16.641  29.867   5.635  0.00  0.00    +0.142 HD
ATOM     20  H   UNL     1      15.599  31.043   4.904  0.00  0.00    +0.142 HD
ENDBRANCH   3  18
TORSDOF 2
ENDMDL
MODEL 4
REMARK minimizedAffinity -7.57042599
REMARK minimizedRMSD -1
REMARK  Name = 
REMARK  2 active torsions:
REMARK  status: ('A' for Active; 'I' for Inactive)
REMARK    1  A    between atoms: C_3  and  N_16
REMARK    2  A    between atoms: C_11  and  N_13
REMARK                            x       y       z     vdW  Elec       q    Type
REMARK                         _______ _______ _______ _____ _____    ______ ____
ROOT
ATOM      1  C   UNL     1      17.634  32.645  11.425  0.00  0.00    +0.012 A 
ATOM      2  C   UNL     1      18.982  32.303  11.324  0.00  0.00    +0.023 A 
ATOM      3  C   UNL     1      19.831  32.463  12.415  0.00  0.00    +0.027 A 
ATOM      4  C   UNL     1      19.298  32.946  13.617  0.00  0.00    +0.051 A 
ATOM      5  C   UNL     1      17.958  33.296  13.751  0.00  0.00    +0.073 A 
ATOM      6  N   UNL     1      17.502  33.766  14.929  0.00  0.00    -0.247 NA
ATOM      7  C   UNL     1      16.202  34.100  15.050  0.00  0.00    +0.073 A 
ATOM      8  C   UNL     1      15.293  33.977  13.985  0.00  0.00    +0.001 A 
ATOM      9  C   UNL     1      13.948  34.337  14.154  0.00  0.00    +0.012 A 
ATOM     10  C   UNL     1      13.501  34.822  15.381  0.00  0.00    +0.023 A 
ATOM     11  C   UNL     1      14.385  34.951  16.450  0.00  0.00    +0.027 A 
ATOM     12  C   UNL     1      15.723  34.587  16.263  0.00  0.00    +0.051 A 
ATOM     13  C   UNL     1      15.773  33.489  12.766  0.00  0.00    +0.020 A 
ATOM     14  C   UNL     1      17.120  33.141  12.632  0.00  0.00    +0.001 A 
ENDROOT
BRANCH  11  15
ATOM     15  N   UNL     1      13.944  35.434  17.667  0.00  0.00    -0.358 N 
ATOM     16  H   UNL     1      12.978  35.695  17.803  0.00  0.00    +0.142 HD
ATOM     17  H   UNL     1      14.583  35.528  18.445  0.00  0.00    +0.142 HD
ENDBRANCH  11  15
BRANCH   3  18
ATOM     18  N   UNL     1      21.156  32.073  12.335  0.00  0.00    -0.358 N 
ATOM     19  H   UNL     1      21.788  32.262  13.100  0.00  0.00    +0.142 HD
ATOM     20  H   UNL     1      21.556  31.803  11.446  0.00  0.00    +0.142 HD
ENDBRANCH   3  18
TORSDOF 2
ENDMDL
MODEL 5
REMARK minimizedAffinity -7.47467995
REMARK minimizedRMSD -1
REMARK  Name = 
REMARK  2 active torsions:
REMARK  status: ('A' for Active; 'I' for Inactive)
REMARK    1  A    between atoms: C_3  and  N_16
REMARK    2  A    between atoms: C_11  and  N_13
REMARK                            x       y       z     vdW  Elec       q    Type
REMARK                         _______ _______ _______ _____ _____    ______ ____
ROOT
ATOM      1  C   UNL     1      15.095  32.987  11.985  0.00  0.00    +0.012 A 
ATOM      2  C   UNL     1      15.819  32.427  10.933  0.00  0.00    +0.023 A 
ATOM      3  C   UNL     1      17.204  32.559  10.884  0.00  0.00    +0.027 A 
ATOM      4  C   UNL     1      17.852  33.239  11.923  0.00  0.00    +0.051 A 
ATOM      5  C   UNL     1      17.159  33.809  12.988  0.00  0.00    +0.073 A 
ATOM      6  N   UNL     1      17.834  34.461  13.955  0.00  0.00    -0.247 NA
ATOM      7  C   UNL     1      17.155  35.009  14.982  0.00  0.00    +0.073 A 
ATOM      8  C   UNL     1      15.755  34.924  15.086  0.00  0.00    +0.001 A 
ATOM      9  C   UNL     1      15.088  35.508  16.173  0.00  0.00    +0.012 A 
ATOM     10  C   UNL     1      15.808  36.179  17.160  0.00  0.00    +0.023 A 
ATOM     11  C   UNL     1      17.195  36.274  17.076  0.00  0.00    +0.027 A 
ATOM     12  C   UNL     1      17.844  35.685  15.985  0.00  0.00    +0.051 A 
ATOM     13  C   UNL     1      15.062  34.246  14.080  0.00  0.00    +0.020 A 
ATOM     14  C   UNL     1      15.759  33.677  13.010  0.00  0.00    +0.001 A 
ENDROOT
BRANCH  11  15
ATOM     15  N   UNL     1      17.911  36.940  18.052  0.00  0.00    -0.358 N 
ATOM     16  H   UNL     1      17.443  37.364  18.841  0.00  0.00    +0.142 HD
ATOM     17  H   UNL     1      18.918  37.010  17.995  0.00  0.00    +0.142 HD
ENDBRANCH  11  15
BRANCH   3  18
ATOM     18  N   UNL     1      17.929  31.958   9.872  0.00  0.00    -0.358 N 
ATOM     19  H   UNL     1      18.924  32.121   9.794  0.00  0.00    +0.142 HD
ATOM     20  H   UNL     1      17.455  31.540   9.082  0.00  0.00    +0.142 HD
ENDBRANCH   3  18
TORSDOF 2
ENDMDL
