REMARK  Name = =
REMARK  0 active torsions:
REMARK  status: ('A' for Active; 'I' for Inactive)
REMARK                            x       y       z     vdW  Elec       q    Type
REMARK                         _______ _______ _______ _____ _____    ______ ____
ROOT
ATOM      1  C   UNL     1      15.348  35.111   8.977  0.00  0.00    +0.044 C 
ATOM      2  C   UNL     1      15.860  33.743   8.606  0.00  0.00    -0.045 C 
ATOM      3  C   UNL     1      15.435  33.173   7.388  0.00  0.00    +0.031 C 
ATOM      4  C   UNL     1      15.926  31.906   7.067  0.00  0.00    +0.066 C 
ATOM      5  C   UNL     1      16.800  31.198   7.880  0.00  0.00    +0.089 C 
ATOM      6  C   UNL     1      17.221  31.769   9.088  0.00  0.00    +0.033 C 
ATOM      7  C   UNL     1      16.753  33.049   9.452  0.00  0.00    -0.045 C 
ATOM      8  C   UNL     1      17.216  33.642  10.756  0.00  0.00    +0.044 C 
ATOM      9  N   UNL     1      17.117  29.983   7.321  0.00  0.00    -0.236 NA
ATOM     10  C   UNL     1      16.454  29.944   6.188  0.00  0.00    +0.197 C 
ATOM     11  N   UNL     1      15.723  31.081   5.991  0.00  0.00    -0.344 N 
ATOM     12  H   UNL     1      15.136  31.277   5.194  0.00  0.00    +0.167 HD
ENDROOT
TORSDOF 0
