REMARK  Name = =
REMARK  0 active torsions:
REMARK  status: ('A' for Active; 'I' for Inactive)
REMARK                            x       y       z     vdW  Elec       q    Type
REMARK                         _______ _______ _______ _____ _____    ______ ____
ROOT
ATOM      1  C   UNL     1      16.951  29.670   6.442  0.00  0.00    +0.067 C 
ATOM      2  C   UNL     1      16.631  30.891   7.241  0.00  0.00    +0.057 C 
ATOM      3  C   UNL     1      15.794  31.878   6.732  0.00  0.00    +0.134 C 
ATOM      4  N   UNL     1      15.469  33.004   7.412  0.00  0.00    -0.252 NA
ATOM      5  C   UNL     1      16.004  33.134   8.642  0.00  0.00    +0.091 C 
ATOM      6  C   UNL     1      15.725  34.256   9.411  0.00  0.00    +0.032 C 
ATOM      7  C   UNL     1      16.253  34.443  10.696  0.00  0.00    +0.030 C 
ATOM      8  C   UNL     1      17.091  33.439  11.192  0.00  0.00    +0.072 A 
ATOM      9  C   UNL     1      17.404  32.292  10.459  0.00  0.00    +0.118 A 
ATOM     10  C   UNL     1      16.854  32.132   9.163  0.00  0.00    +0.117 C 
ATOM     11  N   UNL     1      17.176  31.005   8.472  0.00  0.00    -0.247 NA
ATOM     12  N   UNL     1      18.247  31.476  11.189  0.00  0.00    -0.212 NA
ATOM     13  C   UNL     1      18.450  32.087  12.327  0.00  0.00    +0.194 A 
ATOM     14  N   UNL     1      17.773  33.282  12.378  0.00  0.00    -0.315 N 
ATOM     15  C   UNL     1      17.784  34.201  13.490  0.00  0.00    +0.152 C 
ATOM     16  N   UNL     1      19.213  31.636  13.327  0.00  0.00    -0.329 N 
ATOM     17  H   UNL     1      19.676  30.741  13.201  0.00  0.00    +0.145 HD
ATOM     18  H   UNL     1      19.373  32.102  14.208  0.00  0.00    +0.145 HD
ENDROOT
TORSDOF 0
