REMARK  Name = =
REMARK  11 active torsions:
REMARK  status: ('A' for Active; 'I' for Inactive)
REMARK    1  A    between atoms: C_1  and  C_2
REMARK    2  A    between atoms: C_1  and  C_6
REMARK    3  A    between atoms: C_2  and  C_3
REMARK    4  A    between atoms: C_3  and  O_24
REMARK    5  A    between atoms: C_4  and  C_5
REMARK    6  A    between atoms: C_8  and  C_19
REMARK    7  A    between atoms: C_16  and  C_17
REMARK    8  A    between atoms: C_18  and  C_19
REMARK    9  A    between atoms: C_20  and  C_21
REMARK   10  A    between atoms: O_24  and  C_25
REMARK   11  A    between atoms: C_28  and  C_32
REMARK                            x       y       z     vdW  Elec       q    Type
REMARK                         _______ _______ _______ _____ _____    ______ ____
ROOT
ATOM      1  C   UNL     1      22.642  34.067  12.622  0.00  0.00    +0.038 C 
ATOM      2  C   UNL     1      23.697  31.737  13.033  0.00  0.00    +0.257 C 
ATOM      3  O   UNL     1      23.502  30.524  12.943  0.00  0.00    -0.270 OA
ATOM      4  N   UNL     1      24.624  32.351  12.195  0.00  0.00    -0.236 N 
ATOM      5  C   UNL     1      24.377  33.296  11.221  0.00  0.00    +0.310 C 
ATOM      6  O   UNL     1      24.998  33.289  10.162  0.00  0.00    -0.252 OA
ATOM      7  N   UNL     1      23.330  34.147  11.422  0.00  0.00    -0.269 N 
ATOM      8  H   UNL     1      25.306  31.691  11.843  0.00  0.00    +0.159 HD
ATOM      9  H   UNL     1      22.912  34.547  10.593  0.00  0.00    +0.156 HD
ENDROOT
BRANCH   1  11
ATOM     10  C   UNL     1      21.681  36.022  14.819  0.00  0.00    +0.025 C 
ATOM     11  C   UNL     1      22.900  35.446  13.708  0.00  0.00    +0.025 C 
BRANCH  10  12
ATOM     12  C   UNL     1      20.077  35.195  14.865  0.00  0.00    +0.083 C 
ATOM     13 CL   UNL     1      19.183  36.222  16.129  0.00  0.00    -0.080 Cl
ENDBRANCH  10  12
ENDBRANCH   1  11
BRANCH   1  14
ATOM     14  C   UNL     1      21.151  33.141  12.542  0.00  0.00    +0.071 C 
BRANCH  14  15
ATOM     15  C   UNL     1      19.793  33.605  13.632  0.00  0.00    +0.150 C 
BRANCH  15  16
ATOM     16  O   UNL     1      18.671  32.820  13.257  0.00  0.00    -0.435 OA
BRANCH  16  17
ATOM     17  C   UNL     1      17.393  33.203  13.661  0.00  0.00    +0.239 C 
ATOM     18  C   UNL     1      16.479  33.518  12.659  0.00  0.00    +0.103 C 
ATOM     19  C   UNL     1      15.216  33.975  13.035  0.00  0.00    +0.039 C 
ATOM     20  C   UNL     1      14.902  34.115  14.392  0.00  0.00    +0.074 C 
ATOM     21  C   UNL     1      15.880  33.775  15.316  0.00  0.00    +0.127 C 
ATOM     22  N   UNL     1      17.113  33.330  14.982  0.00  0.00    -0.219 NA
ATOM     23 CL   UNL     1      16.853  33.373  10.985  0.00  0.00    -0.078 Cl
BRANCH  20  24
ATOM     24  C   UNL     1      13.559  34.609  14.838  0.00  0.00    +0.419 C 
ATOM     25  F   UNL     1      13.565  35.942  15.106  0.00  0.00    -0.166 F 
ATOM     26  F   UNL     1      12.576  34.413  13.918  0.00  0.00    -0.166 F 
ATOM     27  F   UNL     1      13.134  33.998  15.977  0.00  0.00    -0.166 F 
ENDBRANCH  20  24
ENDBRANCH  16  17
ENDBRANCH  15  16
ENDBRANCH  14  15
ENDBRANCH   1  14
BRANCH   2  28
ATOM     28  C   UNL     1      23.036  32.510  14.216  0.00  0.00    +0.107 C 
BRANCH  28  30
ATOM     29  C   UNL     1      24.186  34.606  16.157  0.00  0.00    +0.039 C 
ATOM     30  C   UNL     1      24.403  33.549  14.770  0.00  0.00    +0.138 C 
ATOM     31  F   UNL     1      25.569  33.562  14.113  0.00  0.00    -0.205 F 
BRANCH  29  32
ATOM     32  C   UNL     1      22.651  34.709  17.065  0.00  0.00    +0.006 C 
ATOM     33  C   UNL     1      21.226  33.759  16.671  0.00  0.00    +0.039 C 
BRANCH  33  34
ATOM     34  C   UNL     1      21.305  32.637  15.267  0.00  0.00    +0.138 C 
ATOM     35  F   UNL     1      20.103  32.006  15.126  0.00  0.00    -0.205 F 
ENDBRANCH  33  34
ENDBRANCH  29  32
ENDBRANCH  28  30
ENDBRANCH   2  28
TORSDOF 11
