MODEL 1
REMARK minimizedAffinity -9.80703068
REMARK minimizedRMSD -1
REMARK  Name = 
REMARK  7 active torsions:
REMARK  status: ('A' for Active; 'I' for Inactive)
REMARK    1  A    between atoms: C_1  and  C_2
REMARK    2  A    between atoms: N_4  and  C_32
REMARK    3  A    between atoms: C_8  and  O_10
REMARK    4  A    between atoms: O_10  and  C_11
REMARK    5  A    between atoms: C_12  and  O_30
REMARK    6  A    between atoms: N_21  and  C_22
REMARK    7  A    between atoms: O_30  and  C_31
REMARK                            x       y       z     vdW  Elec       q    Type
REMARK                         _______ _______ _______ _____ _____    ______ ____
ROOT
ATOM      1  C   UNL     1      17.658  34.835  15.409  0.00  0.00    +0.175 A 
ATOM      2  C   UNL     1      16.634  35.165  16.299  0.00  0.00    +0.164 A 
ATOM      3  C   UNL     1      15.318  34.897  15.916  0.00  0.00    +0.078 A 
ATOM      4  C   UNL     1      15.009  34.334  14.680  0.00  0.00    +0.080 A 
ATOM      5  C   UNL     1      16.049  34.016  13.791  0.00  0.00    +0.044 A 
ATOM      6  C   UNL     1      17.385  34.283  14.162  0.00  0.00    +0.063 A 
ATOM      7  C   UNL     1      15.646  33.466  12.560  0.00  0.00    +0.134 A 
ATOM      8  N   UNL     1      14.352  33.271  12.253  0.00  0.00    -0.220 NA
ATOM      9  C   UNL     1      13.455  33.622  13.176  0.00  0.00    +0.223 A 
ATOM     10  N   UNL     1      13.724  34.134  14.383  0.00  0.00    -0.235 NA
ATOM     11  N   UNL     1      16.618  33.083  11.612  0.00  0.00    -0.297 N 
ATOM     12  H   UNL     1      17.311  32.456  11.994  0.00  0.00    +0.154 HD
ENDROOT
BRANCH  11  13
ATOM     13  C   UNL     1      16.498  33.091  10.208  0.00  0.00    +0.070 A 
ATOM     14  C   UNL     1      17.071  32.102   9.389  0.00  0.00    +0.163 A 
ATOM     15  C   UNL     1      16.946  32.159   8.000  0.00  0.00    +0.078 A 
ATOM     16  C   UNL     1      16.246  33.206   7.401  0.00  0.00    +0.023 A 
ATOM     17  C   UNL     1      15.667  34.193   8.198  0.00  0.00    +0.003 A 
ATOM     18  C   UNL     1      15.790  34.133   9.589  0.00  0.00    +0.026 A 
ATOM     19 CL   UNL     1      17.631  30.930   7.005  0.00  0.00    -0.081 Cl
ATOM     20  F   UNL     1      17.692  31.047   9.947  0.00  0.00    -0.202 F 
ENDBRANCH  11  13
BRANCH   2  21
ATOM     21  O   UNL     1      17.022  35.743  17.480  0.00  0.00    -0.491 OA
ATOM     22  C   UNL     1      17.049  34.900  18.627  0.00  0.00    +0.277 C 
ENDBRANCH   2  21
BRANCH   1  23
ATOM     23  O   UNL     1      18.984  35.139  15.728  0.00  0.00    -0.408 OA
BRANCH  23  31
ATOM     24  C   UNL     1      22.089  35.954  14.832  0.00  0.00    +0.033 C 
ATOM     25  C   UNL     1      21.233  34.843  14.220  0.00  0.00    +0.122 C 
ATOM     26  C   UNL     1      21.883  34.183  12.980  0.00  0.00    +0.153 C 
ATOM     27  N   UNL     1      22.888  33.089  13.308  0.00  0.00    +0.235 N 
ATOM     28  C   UNL     1      22.321  32.087  14.304  0.00  0.00    +0.150 C 
ATOM     29  C   UNL     1      21.788  32.785  15.558  0.00  0.00    +0.162 C 
ATOM     30  N   UNL     1      20.842  33.854  15.240  0.00  0.00    -0.254 N 
ATOM     31  C   UNL     1      19.727  34.017  16.062  0.00  0.00    +0.409 C 
ATOM     32  O   UNL     1      19.445  33.223  16.952  0.00  0.00    -0.226 OA
ATOM     33  C   UNL     1      24.265  33.571  13.654  0.00  0.00    +0.190 C 
ATOM     34  H   UNL     1      23.008  32.564  12.431  0.00  0.00    +0.203 HD
ENDBRANCH  23  31
ENDBRANCH   1  23
TORSDOF 4
ENDMDL
MODEL 2
REMARK minimizedAffinity -9.30594635
REMARK minimizedRMSD -1
REMARK  Name = 
REMARK  7 active torsions:
REMARK  status: ('A' for Active; 'I' for Inactive)
REMARK    1  A    between atoms: C_1  and  C_2
REMARK    2  A    between atoms: N_4  and  C_32
REMARK    3  A    between atoms: C_8  and  O_10
REMARK    4  A    between atoms: O_10  and  C_11
REMARK    5  A    between atoms: C_12  and  O_30
REMARK    6  A    between atoms: N_21  and  C_22
REMARK    7  A    between atoms: O_30  and  C_31
REMARK                            x       y       z     vdW  Elec       q    Type
REMARK                         _______ _______ _______ _____ _____    ______ ____
ROOT
ATOM      1  C   UNL     1      18.660  35.524  15.289  0.00  0.00    +0.175 A 
ATOM      2  C   UNL     1      17.733  35.982  16.226  0.00  0.00    +0.164 A 
ATOM      3  C   UNL     1      16.393  35.633  16.050  0.00  0.00    +0.078 A 
ATOM      4  C   UNL     1      15.965  34.866  14.968  0.00  0.00    +0.080 A 
ATOM      5  C   UNL     1      16.908  34.420  14.028  0.00  0.00    +0.044 A 
ATOM      6  C   UNL     1      18.268  34.767  14.190  0.00  0.00    +0.063 A 
ATOM      7  C   UNL     1      16.388  33.666  12.960  0.00  0.00    +0.134 A 
ATOM      8  N   UNL     1      15.075  33.402  12.844  0.00  0.00    -0.220 NA
ATOM      9  C   UNL     1      14.277  33.887  13.796  0.00  0.00    +0.223 A 
ATOM     10  N   UNL     1      14.663  34.599  14.862  0.00  0.00    -0.235 NA
ATOM     11  N   UNL     1      17.259  33.145  11.981  0.00  0.00    -0.297 N 
ATOM     12  H   UNL     1      18.013  32.601  12.376  0.00  0.00    +0.154 HD
ENDROOT
BRANCH  11  13
ATOM     13  C   UNL     1      16.981  32.915  10.619  0.00  0.00    +0.070 A 
ATOM     14  C   UNL     1      16.214  33.798   9.838  0.00  0.00    +0.163 A 
ATOM     15  C   UNL     1      15.943  33.521   8.497  0.00  0.00    +0.078 A 
ATOM     16  C   UNL     1      16.434  32.357   7.909  0.00  0.00    +0.023 A 
ATOM     17  C   UNL     1      17.201  31.472   8.665  0.00  0.00    +0.003 A 
ATOM     18  C   UNL     1      17.473  31.751  10.008  0.00  0.00    +0.026 A 
ATOM     19 CL   UNL     1      15.022  34.621   7.541  0.00  0.00    -0.081 Cl
ATOM     20  F   UNL     1      15.787  34.959  10.365  0.00  0.00    -0.202 F 
ENDBRANCH  11  13
BRANCH   2  21
ATOM     21  O   UNL     1      18.231  36.755  17.242  0.00  0.00    -0.491 OA
ATOM     22  C   UNL     1      18.209  36.190  18.549  0.00  0.00    +0.277 C 
ENDBRANCH   2  21
BRANCH   1  23
ATOM     23  O   UNL     1      20.003  35.898  15.395  0.00  0.00    -0.408 OA
BRANCH  23  31
ATOM     24  C   UNL     1      22.470  35.603  13.174  0.00  0.00    +0.033 C 
ATOM     25  C   UNL     1      21.420  34.540  13.507  0.00  0.00    +0.122 C 
ATOM     26  C   UNL     1      21.487  33.301  12.580  0.00  0.00    +0.153 C 
ATOM     27  N   UNL     1      22.522  32.265  12.996  0.00  0.00    +0.235 N 
ATOM     28  C   UNL     1      22.403  31.915  14.472  0.00  0.00    +0.150 C 
ATOM     29  C   UNL     1      22.448  33.168  15.350  0.00  0.00    +0.162 C 
ATOM     30  N   UNL     1      21.471  34.175  14.934  0.00  0.00    -0.254 N 
ATOM     31  C   UNL     1      20.800  34.894  15.922  0.00  0.00    +0.409 C 
ATOM     32  O   UNL     1      20.900  34.623  17.114  0.00  0.00    -0.226 OA
ATOM     33  C   UNL     1      23.926  32.553  12.554  0.00  0.00    +0.190 C 
ATOM     34  H   UNL     1      22.260  31.409  12.490  0.00  0.00    +0.203 HD
ENDBRANCH  23  31
ENDBRANCH   1  23
TORSDOF 4
ENDMDL
MODEL 3
REMARK minimizedAffinity -8.89723301
REMARK minimizedRMSD -1
REMARK  Name = 
REMARK  7 active torsions:
REMARK  status: ('A' for Active; 'I' for Inactive)
REMARK    1  A    between atoms: C_1  and  C_2
REMARK    2  A    between atoms: N_4  and  C_32
REMARK    3  A    between atoms: C_8  and  O_10
REMARK    4  A    between atoms: O_10  and  C_11
REMARK    5  A    between atoms: C_12  and  O_30
REMARK    6  A    between atoms: N_21  and  C_22
REMARK    7  A    between atoms: O_30  and  C_31
REMARK                            x       y       z     vdW  Elec       q    Type
REMARK                         _______ _______ _______ _____ _____    ______ ____
ROOT
ATOM      1  C   UNL     1      18.082  35.045  14.980  0.00  0.00    +0.175 A 
ATOM      2  C   UNL     1      17.122  35.395  15.931  0.00  0.00    +0.164 A 
ATOM      3  C   UNL     1      15.787  35.086  15.663  0.00  0.00    +0.078 A 
ATOM      4  C   UNL     1      15.397  34.463  14.480  0.00  0.00    +0.080 A 
ATOM      5  C   UNL     1      16.372  34.125  13.528  0.00  0.00    +0.044 A 
ATOM      6  C   UNL     1      17.727  34.434  13.782  0.00  0.00    +0.063 A 
ATOM      7  C   UNL     1      15.889  33.515  12.357  0.00  0.00    +0.134 A 
ATOM      8  N   UNL     1      14.580  33.282  12.159  0.00  0.00    -0.220 NA
ATOM      9  C   UNL     1      13.749  33.655  13.133  0.00  0.00    +0.223 A 
ATOM     10  N   UNL     1      14.098  34.226  14.293  0.00  0.00    -0.235 NA
ATOM     11  N   UNL     1      16.793  33.108  11.353  0.00  0.00    -0.297 N 
ATOM     12  H   UNL     1      17.528  32.512  11.706  0.00  0.00    +0.154 HD
ENDROOT
BRANCH  11  13
ATOM     13  C   UNL     1      16.566  33.051   9.964  0.00  0.00    +0.070 A 
ATOM     14  C   UNL     1      17.048  32.007   9.154  0.00  0.00    +0.163 A 
ATOM     15  C   UNL     1      16.819  32.002   7.777  0.00  0.00    +0.078 A 
ATOM     16  C   UNL     1      16.103  33.038   7.182  0.00  0.00    +0.023 A 
ATOM     17  C   UNL     1      15.612  34.079   7.969  0.00  0.00    +0.003 A 
ATOM     18  C   UNL     1      15.840  34.083   9.348  0.00  0.00    +0.026 A 
ATOM     19 CL   UNL     1      17.393  30.706   6.797  0.00  0.00    -0.081 Cl
ATOM     20  F   UNL     1      17.683  30.963   9.716  0.00  0.00    -0.202 F 
ENDBRANCH  11  13
BRANCH   2  21
ATOM     21  O   UNL     1      17.586  36.032  17.053  0.00  0.00    -0.491 OA
ATOM     22  C   UNL     1      17.470  35.327  18.285  0.00  0.00    +0.277 C 
ENDBRANCH   2  21
BRANCH   1  23
ATOM     23  O   UNL     1      19.422  35.388  15.182  0.00  0.00    -0.408 OA
BRANCH  23  31
ATOM     24  C   UNL     1      20.913  37.136  17.597  0.00  0.00    +0.033 C 
ATOM     25  C   UNL     1      21.611  36.377  16.466  0.00  0.00    +0.122 C 
ATOM     26  C   UNL     1      23.140  36.614  16.423  0.00  0.00    +0.153 C 
ATOM     27  N   UNL     1      23.937  35.730  17.372  0.00  0.00    +0.235 N 
ATOM     28  C   UNL     1      23.544  34.266  17.238  0.00  0.00    +0.150 C 
ATOM     29  C   UNL     1      22.033  34.075  17.393  0.00  0.00    +0.162 C 
ATOM     30  N   UNL     1      21.267  34.944  16.500  0.00  0.00    -0.254 N 
ATOM     31  C   UNL     1      20.120  34.428  15.898  0.00  0.00    +0.409 C 
ATOM     32  O   UNL     1      19.806  33.246  15.986  0.00  0.00    -0.226 OA
ATOM     33  C   UNL     1      23.998  36.211  18.790  0.00  0.00    +0.190 C 
ATOM     34  H   UNL     1      24.908  35.784  17.035  0.00  0.00    +0.203 HD
ENDBRANCH  23  31
ENDBRANCH   1  23
TORSDOF 4
ENDMDL
MODEL 4
REMARK minimizedAffinity -8.61146545
REMARK minimizedRMSD -1
REMARK  Name = 
REMARK  7 active torsions:
REMARK  status: ('A' for Active; 'I' for Inactive)
REMARK    1  A    between atoms: C_1  and  C_2
REMARK    2  A    between atoms: N_4  and  C_32
REMARK    3  A    between atoms: C_8  and  O_10
REMARK    4  A    between atoms: O_10  and  C_11
REMARK    5  A    between atoms: C_12  and  O_30
REMARK    6  A    between atoms: N_21  and  C_22
REMARK    7  A    between atoms: O_30  and  C_31
REMARK                            x       y       z     vdW  Elec       q    Type
REMARK                         _______ _______ _______ _____ _____    ______ ____
ROOT
ATOM      1  C   UNL     1      21.988  34.153  14.649  0.00  0.00    +0.175 A 
ATOM      2  C   UNL     1      22.617  33.216  13.828  0.00  0.00    +0.164 A 
ATOM      3  C   UNL     1      21.849  32.577  12.852  0.00  0.00    +0.078 A 
ATOM      4  C   UNL     1      20.490  32.836  12.694  0.00  0.00    +0.080 A 
ATOM      5  C   UNL     1      19.869  33.775  13.533  0.00  0.00    +0.044 A 
ATOM      6  C   UNL     1      20.630  34.429  14.528  0.00  0.00    +0.063 A 
ATOM      7  C   UNL     1      18.492  33.964  13.316  0.00  0.00    +0.134 A 
ATOM      8  N   UNL     1      17.816  33.281  12.376  0.00  0.00    -0.220 NA
ATOM      9  C   UNL     1      18.514  32.410  11.646  0.00  0.00    +0.223 A 
ATOM     10  N   UNL     1      19.825  32.164  11.754  0.00  0.00    -0.235 NA
ATOM     11  N   UNL     1      17.783  34.910  14.087  0.00  0.00    -0.297 N 
ATOM     12  H   UNL     1      18.206  35.827  14.067  0.00  0.00    +0.154 HD
ENDROOT
BRANCH  11  13
ATOM     13  C   UNL     1      16.429  34.862  14.473  0.00  0.00    +0.070 A 
ATOM     14  C   UNL     1      15.946  35.484  15.638  0.00  0.00    +0.163 A 
ATOM     15  C   UNL     1      14.599  35.393  15.994  0.00  0.00    +0.078 A 
ATOM     16  C   UNL     1      13.708  34.679  15.194  0.00  0.00    +0.023 A 
ATOM     17  C   UNL     1      14.168  34.061  14.032  0.00  0.00    +0.003 A 
ATOM     18  C   UNL     1      15.516  34.154  13.675  0.00  0.00    +0.026 A 
ATOM     19 CL   UNL     1      14.011  36.179  17.412  0.00  0.00    -0.081 Cl
ATOM     20  F   UNL     1      16.772  36.233  16.388  0.00  0.00    -0.202 F 
ENDBRANCH  11  13
BRANCH   2  21
ATOM     21  O   UNL     1      23.948  32.997  14.068  0.00  0.00    -0.491 OA
ATOM     22  C   UNL     1      24.681  32.319  13.053  0.00  0.00    +0.277 C 
ENDBRANCH   2  21
BRANCH   1  23
ATOM     23  O   UNL     1      22.705  34.773  15.676  0.00  0.00    -0.408 OA
BRANCH  23  31
ATOM     24  C   UNL     1      20.446  37.032  16.625  0.00  0.00    +0.033 C 
ATOM     25  C   UNL     1      21.807  36.784  17.279  0.00  0.00    +0.122 C 
ATOM     26  C   UNL     1      22.155  37.815  18.380  0.00  0.00    +0.153 C 
ATOM     27  N   UNL     1      21.556  37.500  19.743  0.00  0.00    +0.235 N 
ATOM     28  C   UNL     1      21.823  36.059  20.153  0.00  0.00    +0.150 C 
ATOM     29  C   UNL     1      21.364  35.076  19.073  0.00  0.00    +0.162 C 
ATOM     30  N   UNL     1      21.919  35.395  17.758  0.00  0.00    -0.254 N 
ATOM     31  C   UNL     1      22.320  34.342  16.936  0.00  0.00    +0.409 C 
ATOM     32  O   UNL     1      22.347  33.179  17.323  0.00  0.00    -0.226 OA
ATOM     33  C   UNL     1      20.131  37.926  19.927  0.00  0.00    +0.190 C 
ATOM     34  H   UNL     1      22.089  38.076  20.409  0.00  0.00    +0.203 HD
ENDBRANCH  23  31
ENDBRANCH   1  23
TORSDOF 4
ENDMDL
MODEL 5
REMARK minimizedAffinity -8.34411335
REMARK minimizedRMSD -1
REMARK  Name = 
REMARK  7 active torsions:
REMARK  status: ('A' for Active; 'I' for Inactive)
REMARK    1  A    between atoms: C_1  and  C_2
REMARK    2  A    between atoms: N_4  and  C_32
REMARK    3  A    between atoms: C_8  and  O_10
REMARK    4  A    between atoms: O_10  and  C_11
REMARK    5  A    between atoms: C_12  and  O_30
REMARK    6  A    between atoms: N_21  and  C_22
REMARK    7  A    between atoms: O_30  and  C_31
REMARK                            x       y       z     vdW  Elec       q    Type
REMARK                         _______ _______ _______ _____ _____    ______ ____
ROOT
ATOM      1  C   UNL     1      17.846  34.120  13.707  0.00  0.00    +0.175 A 
ATOM      2  C   UNL     1      16.553  33.640  13.495  0.00  0.00    +0.164 A 
ATOM      3  C   UNL     1      15.542  34.071  14.357  0.00  0.00    +0.078 A 
ATOM      4  C   UNL     1      15.796  34.939  15.416  0.00  0.00    +0.080 A 
ATOM      5  C   UNL     1      17.104  35.406  15.623  0.00  0.00    +0.044 A 
ATOM      6  C   UNL     1      18.139  34.977  14.762  0.00  0.00    +0.063 A 
ATOM      7  C   UNL     1      17.273  36.265  16.724  0.00  0.00    +0.134 A 
ATOM      8  N   UNL     1      16.252  36.605  17.530  0.00  0.00    -0.220 NA
ATOM      9  C   UNL     1      15.057  36.091  17.236  0.00  0.00    +0.223 A 
ATOM     10  N   UNL     1      14.778  35.281  16.207  0.00  0.00    -0.235 NA
ATOM     11  N   UNL     1      18.544  36.813  16.997  0.00  0.00    -0.297 N 
ATOM     12  H   UNL     1      18.947  37.285  16.200  0.00  0.00    +0.154 HD
ENDROOT
BRANCH  11  13
ATOM     13  C   UNL     1      19.078  37.159  18.254  0.00  0.00    +0.070 A 
ATOM     14  C   UNL     1      20.142  36.458  18.850  0.00  0.00    +0.163 A 
ATOM     15  C   UNL     1      20.626  36.822  20.108  0.00  0.00    +0.078 A 
ATOM     16  C   UNL     1      20.059  37.893  20.795  0.00  0.00    +0.023 A 
ATOM     17  C   UNL     1      19.007  38.604  20.218  0.00  0.00    +0.003 A 
ATOM     18  C   UNL     1      18.524  38.240  18.957  0.00  0.00    +0.026 A 
ATOM     19 CL   UNL     1      21.946  35.971  20.820  0.00  0.00    -0.081 Cl
ATOM     20  F   UNL     1      20.749  35.465  18.177  0.00  0.00    -0.202 F 
ENDBRANCH  11  13
BRANCH   2  21
ATOM     21  O   UNL     1      16.394  32.767  12.450  0.00  0.00    -0.491 OA
ATOM     22  C   UNL     1      15.077  32.622  11.930  0.00  0.00    +0.277 C 
ENDBRANCH   2  21
BRANCH   1  23
ATOM     23  O   UNL     1      18.897  33.669  12.904  0.00  0.00    -0.408 OA
BRANCH  23  31
ATOM     24  C   UNL     1      21.483  35.294  14.239  0.00  0.00    +0.033 C 
ATOM     25  C   UNL     1      21.548  34.262  13.111  0.00  0.00    +0.122 C 
ATOM     26  C   UNL     1      22.958  34.126  12.486  0.00  0.00    +0.153 C 
ATOM     27  N   UNL     1      23.893  33.201  13.250  0.00  0.00    +0.235 N 
ATOM     28  C   UNL     1      23.233  31.865  13.558  0.00  0.00    +0.150 C 
ATOM     29  C   UNL     1      21.891  32.055  14.269  0.00  0.00    +0.162 C 
ATOM     30  N   UNL     1      21.002  32.965  13.548  0.00  0.00    -0.254 N 
ATOM     31  C   UNL     1      19.641  32.665  13.505  0.00  0.00    +0.409 C 
ATOM     32  O   UNL     1      19.187  31.609  13.931  0.00  0.00    -0.226 OA
ATOM     33  C   UNL     1      24.580  33.821  14.430  0.00  0.00    +0.190 C 
ATOM     34  H   UNL     1      24.653  32.984  12.590  0.00  0.00    +0.203 HD
ENDBRANCH  23  31
ENDBRANCH   1  23
TORSDOF 4
ENDMDL
