REMARK  Name = =
REMARK  6 active torsions:
REMARK  status: ('A' for Active; 'I' for Inactive)
REMARK    1  A    between atoms: C_1  and  O_23
REMARK    2  A    between atoms: C_2  and  O_21
REMARK    3  A    between atoms: N_11  and  C_13
REMARK    4  A    between atoms: O_23  and  C_27
REMARK    5  A    between atoms: N_24  and  C_31
REMARK    6  A    between atoms: C_31  and  C_34
REMARK                            x       y       z     vdW  Elec       q    Type
REMARK                         _______ _______ _______ _____ _____    ______ ____
ROOT
ATOM      1  C   UNL     1      16.280  34.387  13.473  0.00  0.00    +0.163 C 
ATOM      2  C   UNL     1      15.451  34.069  14.542  0.00  0.00    +0.164 C 
ATOM      3  C   UNL     1      15.992  33.851  15.809  0.00  0.00    +0.078 C 
ATOM      4  C   UNL     1      17.363  33.872  16.025  0.00  0.00    +0.080 C 
ATOM      5  C   UNL     1      18.218  34.119  14.939  0.00  0.00    +0.044 C 
ATOM      6  C   UNL     1      17.661  34.356  13.655  0.00  0.00    +0.062 C 
ATOM      7  C   UNL     1      19.593  34.098  15.237  0.00  0.00    +0.134 C 
ATOM      8  N   UNL     1      20.048  33.865  16.481  0.00  0.00    -0.220 NA
ATOM      9  C   UNL     1      19.137  33.635  17.428  0.00  0.00    +0.223 C 
ATOM     10  N   UNL     1      17.810  33.646  17.260  0.00  0.00    -0.235 NA
ATOM     11  N   UNL     1      20.540  34.343  14.221  0.00  0.00    -0.297 N 
ATOM     12  H   UNL     1      20.339  35.160  13.667  0.00  0.00    +0.154 HD
ENDROOT
BRANCH  11  13
ATOM     13  C   UNL     1      21.870  33.878  14.150  0.00  0.00    +0.070 C 
ATOM     14  C   UNL     1      22.261  32.791  13.348  0.00  0.00    +0.163 C 
ATOM     15  C   UNL     1      23.584  32.344  13.338  0.00  0.00    +0.078 C 
ATOM     16  C   UNL     1      24.543  32.976  14.129  0.00  0.00    +0.023 C 
ATOM     17  C   UNL     1      24.177  34.061  14.924  0.00  0.00    +0.003 C 
ATOM     18  C   UNL     1      22.852  34.509  14.933  0.00  0.00    +0.026 C 
ATOM     19 CL   UNL     1      24.057  31.021  12.342  0.00  0.00    -0.081 Cl
ATOM     20  F   UNL     1      21.368  32.208  12.531  0.00  0.00    -0.202 F 
ENDBRANCH  11  13
BRANCH   2  21
ATOM     21  O   UNL     1      14.091  34.007  14.396  0.00  0.00    -0.491 OA
ATOM     22  C   UNL     1      13.456  34.637  15.513  0.00  0.00    +0.277 C 
ENDBRANCH   2  21
BRANCH   1  23
ATOM     23  O   UNL     1      15.793  34.613  12.219  0.00  0.00    -0.485 OA
BRANCH  23  27
ATOM     24  N   UNL     1      16.689  31.892   9.062  0.00  0.00    +0.242 N 
ATOM     25  C   UNL     1      17.407  31.706  10.382  0.00  0.00    +0.135 C 
ATOM     26  C   UNL     1      16.611  32.409  11.470  0.00  0.00    +0.095 C 
ATOM     27  C   UNL     1      16.419  33.892  11.143  0.00  0.00    +0.184 C 
ATOM     28  C   UNL     1      15.780  34.081   9.759  0.00  0.00    +0.095 C 
ATOM     29  C   UNL     1      16.573  33.349   8.687  0.00  0.00    +0.135 C 
ATOM     30  H   UNL     1      15.736  31.529   9.193  0.00  0.00    +0.204 HD
BRANCH  24  31
ATOM     31  C   UNL     1      17.285  31.038   7.930  0.00  0.00    +0.228 C 
BRANCH  31  34
ATOM     32  C   UNL     1      18.079  29.391   5.573  0.00  0.00    +0.128 C 
ATOM     33  N   UNL     1      16.765  29.350   6.173  0.00  0.00    -0.314 N 
ATOM     34  C   UNL     1      16.317  30.065   7.245  0.00  0.00    +0.258 C 
ATOM     35  O   UNL     1      15.162  29.909   7.640  0.00  0.00    -0.270 OA
ATOM     36  H   UNL     1      16.076  28.720   5.769  0.00  0.00    +0.149 HD
ENDBRANCH  31  34
ENDBRANCH  24  31
ENDBRANCH  23  27
ENDBRANCH   1  23
TORSDOF 6
