REMARK  Name = =
REMARK  1 active torsions:
REMARK  status: ('A' for Active; 'I' for Inactive)
REMARK    1  A    between atoms: C_11  and  N_14
REMARK                            x       y       z     vdW  Elec       q    Type
REMARK                         _______ _______ _______ _____ _____    ______ ____
ROOT
ATOM      1  C   UNL     1      15.347  34.907   8.573  0.00  0.00    +0.001 C 
ATOM      2  C   UNL     1      16.003  34.587   9.760  0.00  0.00    +0.002 C 
ATOM      3  C   UNL     1      16.580  33.327   9.949  0.00  0.00    +0.026 C 
ATOM      4  C   UNL     1      16.469  32.402   8.904  0.00  0.00    +0.049 A 
ATOM      5  C   UNL     1      15.817  32.692   7.703  0.00  0.00    +0.009 A 
ATOM      6  C   UNL     1      15.248  33.972   7.537  0.00  0.00    +0.010 C 
ATOM      7  C   UNL     1      15.892  31.524   6.884  0.00  0.00    +0.027 A 
ATOM      8  C   UNL     1      16.580  30.562   7.609  0.00  0.00    +0.141 A 
ATOM      9  N   UNL     1      16.925  31.106   8.813  0.00  0.00    -0.339 N 
ATOM     10  N   UNL     1      16.873  29.303   7.233  0.00  0.00    -0.215 NA
ATOM     11  C   UNL     1      16.434  28.988   6.002  0.00  0.00    +0.118 C 
ATOM     12  C   UNL     1      15.723  29.856   5.177  0.00  0.00    +0.044 C 
ATOM     13  C   UNL     1      15.443  31.156   5.607  0.00  0.00    +0.015 C 
ATOM     14  H   UNL     1      17.432  30.607   9.526  0.00  0.00    +0.167 HD
ENDROOT
BRANCH  11  15
ATOM     15  N   UNL     1      16.669  27.688   5.587  0.00  0.00    -0.343 N 
ATOM     16  H   UNL     1      17.182  27.157   6.281  0.00  0.00    +0.144 HD
ATOM     17  H   UNL     1      16.927  27.547   4.622  0.00  0.00    +0.144 HD
ENDBRANCH  11  15
TORSDOF 1
