REMARK  Name = =
REMARK  4 active torsions:
REMARK  status: ('A' for Active; 'I' for Inactive)
REMARK    1  A    between atoms: C_1  and  O_23
REMARK    2  A    between atoms: C_2  and  O_21
REMARK    3  A    between atoms: N_11  and  C_13
REMARK    4  A    between atoms: O_23  and  C_31
REMARK                            x       y       z     vdW  Elec       q    Type
REMARK                         _______ _______ _______ _____ _____    ______ ____
ROOT
ATOM      1  C   UNL     1      18.082  35.045  14.980  0.00  0.00    +0.175 C 
ATOM      2  C   UNL     1      17.122  35.395  15.931  0.00  0.00    +0.164 C 
ATOM      3  C   UNL     1      15.787  35.086  15.663  0.00  0.00    +0.078 C 
ATOM      4  C   UNL     1      15.397  34.463  14.480  0.00  0.00    +0.080 C 
ATOM      5  C   UNL     1      16.372  34.125  13.528  0.00  0.00    +0.044 C 
ATOM      6  C   UNL     1      17.727  34.434  13.782  0.00  0.00    +0.063 C 
ATOM      7  C   UNL     1      15.889  33.515  12.357  0.00  0.00    +0.134 C 
ATOM      8  N   UNL     1      14.580  33.282  12.159  0.00  0.00    -0.220 NA
ATOM      9  C   UNL     1      13.749  33.655  13.133  0.00  0.00    +0.223 C 
ATOM     10  N   UNL     1      14.098  34.226  14.293  0.00  0.00    -0.235 NA
ATOM     11  N   UNL     1      16.793  33.108  11.353  0.00  0.00    -0.297 N 
ATOM     12  H   UNL     1      17.528  32.512  11.706  0.00  0.00    +0.154 HD
ENDROOT
BRANCH  11  13
ATOM     13  C   UNL     1      16.566  33.051   9.964  0.00  0.00    +0.070 C 
ATOM     14  C   UNL     1      17.048  32.007   9.154  0.00  0.00    +0.163 C 
ATOM     15  C   UNL     1      16.819  32.002   7.777  0.00  0.00    +0.078 C 
ATOM     16  C   UNL     1      16.103  33.038   7.182  0.00  0.00    +0.023 C 
ATOM     17  C   UNL     1      15.612  34.079   7.969  0.00  0.00    +0.003 C 
ATOM     18  C   UNL     1      15.840  34.083   9.348  0.00  0.00    +0.026 C 
ATOM     19 CL   UNL     1      17.393  30.706   6.797  0.00  0.00    -0.081 Cl
ATOM     20  F   UNL     1      17.683  30.963   9.716  0.00  0.00    -0.202 F 
ENDBRANCH  11  13
BRANCH   2  21
ATOM     21  O   UNL     1      17.586  36.032  17.053  0.00  0.00    -0.491 OA
ATOM     22  C   UNL     1      17.470  35.327  18.285  0.00  0.00    +0.277 C 
ENDBRANCH   2  21
BRANCH   1  23
ATOM     23  O   UNL     1      19.422  35.388  15.182  0.00  0.00    -0.408 OA
BRANCH  23  31
ATOM     24  C   UNL     1      20.913  37.136  17.597  0.00  0.00    +0.033 C 
ATOM     25  C   UNL     1      21.611  36.377  16.466  0.00  0.00    +0.122 C 
ATOM     26  C   UNL     1      23.140  36.614  16.423  0.00  0.00    +0.153 C 
ATOM     27  N   UNL     1      23.937  35.730  17.372  0.00  0.00    +0.235 N 
ATOM     28  C   UNL     1      23.544  34.266  17.238  0.00  0.00    +0.150 C 
ATOM     29  C   UNL     1      22.033  34.075  17.393  0.00  0.00    +0.162 C 
ATOM     30  N   UNL     1      21.267  34.944  16.500  0.00  0.00    -0.254 N 
ATOM     31  C   UNL     1      20.120  34.428  15.898  0.00  0.00    +0.409 C 
ATOM     32  O   UNL     1      19.806  33.246  15.986  0.00  0.00    -0.226 OA
ATOM     33  C   UNL     1      23.998  36.211  18.790  0.00  0.00    +0.190 C 
ATOM     34  H   UNL     1      24.908  35.784  17.035  0.00  0.00    +0.203 HD
ENDBRANCH  23  31
ENDBRANCH   1  23
TORSDOF 4
