MODEL 1
REMARK minimizedAffinity -10.0831985
REMARK minimizedRMSD -1
REMARK  Name = 
REMARK  7 active torsions:
REMARK  status: ('A' for Active; 'I' for Inactive)
REMARK    1  A    between atoms: C_1  and  N_2
REMARK    2  A    between atoms: C_3  and  C_5
REMARK    3  A    between atoms: C_9  and  O_11
REMARK    4  A    between atoms: O_11  and  C_12
REMARK    5  A    between atoms: C_15  and  N_18
REMARK    6  A    between atoms: N_21  and  C_22
REMARK    7  A    between atoms: C_24  and  C_29
REMARK                            x       y       z     vdW  Elec       q    Type
REMARK                         _______ _______ _______ _____ _____    ______ ____
ROOT
ATOM      1  C   UNL     1      16.689  32.600  11.421  0.00  0.00    +0.131 A 
ATOM      2  C   UNL     1      15.345  32.578  11.773  0.00  0.00    +0.086 A 
ATOM      3  C   UNL     1      14.895  33.457  12.750  0.00  0.00    +0.148 A 
ATOM      4  C   UNL     1      15.764  34.344  13.401  0.00  0.00    +0.070 A 
ATOM      5  C   UNL     1      17.128  34.275  13.112  0.00  0.00    +0.030 A 
ATOM      6  C   UNL     1      17.589  33.417  12.107  0.00  0.00    +0.048 A 
ATOM      7  F   UNL     1      13.588  33.467  13.057  0.00  0.00    -0.203 F 
ENDROOT
BRANCH   4   8
ATOM      8  N   UNL     1      15.190  35.223  14.341  0.00  0.00    -0.267 N 
ATOM      9  C   UNL     1      15.142  35.229  15.690  0.00  0.00    +0.308 C 
ATOM     10  O   UNL     1      14.168  35.751  16.239  0.00  0.00    -0.252 OA
ATOM     11  N   UNL     1      16.100  34.690  16.478  0.00  0.00    -0.269 N 
ATOM     12  H   UNL     1      14.580  35.930  13.942  0.00  0.00    +0.156 HD
ATOM     13  H   UNL     1      15.737  34.510  17.407  0.00  0.00    +0.156 HD
BRANCH  11  14
ATOM     14  C   UNL     1      17.488  34.539  16.322  0.00  0.00    +0.035 A 
ATOM     15  C   UNL     1      18.339  35.550  15.871  0.00  0.00    +0.037 A 
ATOM     16  C   UNL     1      19.717  35.316  15.677  0.00  0.00    +0.075 A 
ATOM     17  C   UNL     1      20.238  34.060  16.006  0.00  0.00    +0.053 A 
ATOM     18  C   UNL     1      19.401  33.063  16.516  0.00  0.00    +0.022 A 
ATOM     19  C   UNL     1      18.036  33.303  16.676  0.00  0.00    +0.025 A 
ATOM     20 CL   UNL     1      21.908  33.677  15.813  0.00  0.00    -0.083 Cl
BRANCH  16  21
ATOM     21  C   UNL     1      20.588  36.404  15.112  0.00  0.00    +0.419 C 
ATOM     22  F   UNL     1      19.890  37.536  14.798  0.00  0.00    -0.166 F 
ATOM     23  F   UNL     1      21.565  36.810  15.967  0.00  0.00    -0.166 F 
ATOM     24  F   UNL     1      21.208  36.044  13.955  0.00  0.00    -0.166 F 
ENDBRANCH  16  21
ENDBRANCH  11  14
ENDBRANCH   4   8
BRANCH   1  25
ATOM     25  O   UNL     1      17.141  31.748  10.442  0.00  0.00    -0.456 OA
BRANCH  25  30
ATOM     26  C   UNL     1      15.968  31.225   7.057  0.00  0.00    +0.129 A 
ATOM     27  N   UNL     1      15.598  32.460   6.638  0.00  0.00    -0.250 NA
ATOM     28  C   UNL     1      15.781  33.473   7.510  0.00  0.00    +0.115 A 
ATOM     29  C   UNL     1      16.301  33.306   8.782  0.00  0.00    +0.066 A 
ATOM     30  C   UNL     1      16.674  32.022   9.174  0.00  0.00    +0.132 A 
ATOM     31  C   UNL     1      16.499  30.951   8.308  0.00  0.00    +0.079 A 
BRANCH  26  34
ATOM     32  C   UNL     1      13.531  29.505   7.056  0.00  0.00    +0.128 C 
ATOM     33  N   UNL     1      14.657  29.328   6.171  0.00  0.00    -0.313 N 
ATOM     34  C   UNL     1      15.784  30.115   6.083  0.00  0.00    +0.262 C 
ATOM     35  O   UNL     1      16.635  29.882   5.231  0.00  0.00    -0.269 OA
ATOM     36  H   UNL     1      14.624  28.594   5.473  0.00  0.00    +0.149 HD
ENDBRANCH  26  34
ENDBRANCH  25  30
ENDBRANCH   1  25
TORSDOF 6
ENDMDL
MODEL 2
REMARK minimizedAffinity -10.0310745
REMARK minimizedRMSD -1
REMARK  Name = 
REMARK  7 active torsions:
REMARK  status: ('A' for Active; 'I' for Inactive)
REMARK    1  A    between atoms: C_1  and  N_2
REMARK    2  A    between atoms: C_3  and  C_5
REMARK    3  A    between atoms: C_9  and  O_11
REMARK    4  A    between atoms: O_11  and  C_12
REMARK    5  A    between atoms: C_15  and  N_18
REMARK    6  A    between atoms: N_21  and  C_22
REMARK    7  A    between atoms: C_24  and  C_29
REMARK                            x       y       z     vdW  Elec       q    Type
REMARK                         _______ _______ _______ _____ _____    ______ ____
ROOT
ATOM      1  C   UNL     1      19.250  32.404  12.886  0.00  0.00    +0.131 A 
ATOM      2  C   UNL     1      19.037  32.164  14.238  0.00  0.00    +0.086 A 
ATOM      3  C   UNL     1      19.699  32.954  15.170  0.00  0.00    +0.148 A 
ATOM      4  C   UNL     1      20.586  33.967  14.781  0.00  0.00    +0.070 A 
ATOM      5  C   UNL     1      20.869  34.120  13.423  0.00  0.00    +0.030 A 
ATOM      6  C   UNL     1      20.187  33.352  12.472  0.00  0.00    +0.048 A 
ATOM      7  F   UNL     1      19.457  32.751  16.474  0.00  0.00    -0.203 F 
ENDROOT
BRANCH   4   8
ATOM      8  N   UNL     1      21.164  34.737  15.809  0.00  0.00    -0.267 N 
ATOM      9  C   UNL     1      20.854  35.933  16.353  0.00  0.00    +0.308 C 
ATOM     10  O   UNL     1      21.768  36.621  16.814  0.00  0.00    -0.252 OA
ATOM     11  N   UNL     1      19.596  36.425  16.417  0.00  0.00    -0.269 N 
ATOM     12  H   UNL     1      22.068  34.403  16.132  0.00  0.00    +0.156 HD
ATOM     13  H   UNL     1      19.612  37.429  16.553  0.00  0.00    +0.156 HD
BRANCH  11  14
ATOM     14  C   UNL     1      18.338  35.811  16.538  0.00  0.00    +0.035 A 
ATOM     15  C   UNL     1      17.400  35.741  15.505  0.00  0.00    +0.037 A 
ATOM     16  C   UNL     1      16.129  35.164  15.708  0.00  0.00    +0.075 A 
ATOM     17  C   UNL     1      15.838  34.601  16.955  0.00  0.00    +0.053 A 
ATOM     18  C   UNL     1      16.794  34.614  17.973  0.00  0.00    +0.022 A 
ATOM     19  C   UNL     1      18.037  35.212  17.764  0.00  0.00    +0.025 A 
ATOM     20 CL   UNL     1      14.317  33.866  17.299  0.00  0.00    -0.083 Cl
BRANCH  16  21
ATOM     21  C   UNL     1      15.114  35.179  14.596  0.00  0.00    +0.419 C 
ATOM     22  F   UNL     1      15.567  35.808  13.471  0.00  0.00    -0.166 F 
ATOM     23  F   UNL     1      14.745  33.936  14.189  0.00  0.00    -0.166 F 
ATOM     24  F   UNL     1      13.971  35.838  14.928  0.00  0.00    -0.166 F 
ENDBRANCH  16  21
ENDBRANCH  11  14
ENDBRANCH   4   8
BRANCH   1  25
ATOM     25  O   UNL     1      18.586  31.641  11.955  0.00  0.00    -0.456 OA
BRANCH  25  30
ATOM     26  C   UNL     1      16.719  32.635   9.017  0.00  0.00    +0.129 A 
ATOM     27  N   UNL     1      15.881  33.602   9.467  0.00  0.00    -0.250 NA
ATOM     28  C   UNL     1      15.982  33.930  10.771  0.00  0.00    +0.115 A 
ATOM     29  C   UNL     1      16.868  33.326  11.648  0.00  0.00    +0.066 A 
ATOM     30  C   UNL     1      17.715  32.341  11.147  0.00  0.00    +0.132 A 
ATOM     31  C   UNL     1      17.643  31.972   9.810  0.00  0.00    +0.079 A 
BRANCH  26  34
ATOM     32  C   UNL     1      14.549  30.890   7.947  0.00  0.00    +0.128 C 
ATOM     33  N   UNL     1      15.620  31.442   7.154  0.00  0.00    -0.313 N 
ATOM     34  C   UNL     1      16.619  32.294   7.572  0.00  0.00    +0.262 C 
ATOM     35  O   UNL     1      17.429  32.739   6.765  0.00  0.00    -0.269 OA
ATOM     36  H   UNL     1      15.637  31.262   6.157  0.00  0.00    +0.149 HD
ENDBRANCH  26  34
ENDBRANCH  25  30
ENDBRANCH   1  25
TORSDOF 6
ENDMDL
MODEL 3
REMARK minimizedAffinity -9.78944302
REMARK minimizedRMSD -1
REMARK  Name = 
REMARK  7 active torsions:
REMARK  status: ('A' for Active; 'I' for Inactive)
REMARK    1  A    between atoms: C_1  and  N_2
REMARK    2  A    between atoms: C_3  and  C_5
REMARK    3  A    between atoms: C_9  and  O_11
REMARK    4  A    between atoms: O_11  and  C_12
REMARK    5  A    between atoms: C_15  and  N_18
REMARK    6  A    between atoms: N_21  and  C_22
REMARK    7  A    between atoms: C_24  and  C_29
REMARK                            x       y       z     vdW  Elec       q    Type
REMARK                         _______ _______ _______ _____ _____    ______ ____
ROOT
ATOM      1  C   UNL     1      19.882  32.746  12.865  0.00  0.00    +0.131 A 
ATOM      2  C   UNL     1      20.726  33.784  12.490  0.00  0.00    +0.086 A 
ATOM      3  C   UNL     1      21.430  34.463  13.477  0.00  0.00    +0.148 A 
ATOM      4  C   UNL     1      21.293  34.142  14.835  0.00  0.00    +0.070 A 
ATOM      5  C   UNL     1      20.359  33.170  15.199  0.00  0.00    +0.030 A 
ATOM      6  C   UNL     1      19.667  32.457  14.214  0.00  0.00    +0.048 A 
ATOM      7  F   UNL     1      22.279  35.435  13.110  0.00  0.00    -0.203 F 
ENDROOT
BRANCH   4   8
ATOM      8  N   UNL     1      22.091  34.864  15.744  0.00  0.00    -0.267 N 
ATOM      9  C   UNL     1      22.095  36.151  16.149  0.00  0.00    +0.308 C 
ATOM     10  O   UNL     1      23.167  36.653  16.495  0.00  0.00    -0.252 OA
ATOM     11  N   UNL     1      20.988  36.927  16.193  0.00  0.00    -0.269 N 
ATOM     12  H   UNL     1      22.911  34.365  16.076  0.00  0.00    +0.156 HD
ATOM     13  H   UNL     1      21.241  37.909  16.207  0.00  0.00    +0.156 HD
BRANCH  11  14
ATOM     14  C   UNL     1      19.633  36.642  16.427  0.00  0.00    +0.035 A 
ATOM     15  C   UNL     1      18.796  36.012  15.502  0.00  0.00    +0.037 A 
ATOM     16  C   UNL     1      17.426  35.809  15.773  0.00  0.00    +0.075 A 
ATOM     17  C   UNL     1      16.924  36.194  17.021  0.00  0.00    +0.053 A 
ATOM     18  C   UNL     1      17.770  36.769  17.972  0.00  0.00    +0.022 A 
ATOM     19  C   UNL     1      19.116  36.988  17.678  0.00  0.00    +0.025 A 
ATOM     20 CL   UNL     1      15.268  35.981  17.450  0.00  0.00    -0.083 Cl
BRANCH  16  21
ATOM     21  C   UNL     1      16.538  35.201  14.722  0.00  0.00    +0.419 C 
ATOM     22  F   UNL     1      15.480  36.001  14.392  0.00  0.00    -0.166 F 
ATOM     23  F   UNL     1      17.181  34.956  13.549  0.00  0.00    -0.166 F 
ATOM     24  F   UNL     1      15.977  34.025  15.113  0.00  0.00    -0.166 F 
ENDBRANCH  16  21
ENDBRANCH  11  14
ENDBRANCH   4   8
BRANCH   1  25
ATOM     25  O   UNL     1      19.195  32.054  11.896  0.00  0.00    -0.456 OA
BRANCH  25  30
ATOM     26  C   UNL     1      16.231  33.529  10.429  0.00  0.00    +0.129 A 
ATOM     27  N   UNL     1      15.224  33.132  11.246  0.00  0.00    -0.250 NA
ATOM     28  C   UNL     1      15.571  32.385  12.313  0.00  0.00    +0.115 A 
ATOM     29  C   UNL     1      16.872  32.003  12.593  0.00  0.00    +0.066 A 
ATOM     30  C   UNL     1      17.880  32.435  11.734  0.00  0.00    +0.132 A 
ATOM     31  C   UNL     1      17.566  33.204  10.621  0.00  0.00    +0.079 A 
BRANCH  26  34
ATOM     32  C   UNL     1      15.641  32.358   7.750  0.00  0.00    +0.128 C 
ATOM     33  N   UNL     1      15.635  33.770   8.044  0.00  0.00    -0.313 N 
ATOM     34  C   UNL     1      15.845  34.372   9.265  0.00  0.00    +0.262 C 
ATOM     35  O   UNL     1      15.743  35.589   9.380  0.00  0.00    -0.269 OA
ATOM     36  H   UNL     1      15.386  34.424   7.311  0.00  0.00    +0.149 HD
ENDBRANCH  26  34
ENDBRANCH  25  30
ENDBRANCH   1  25
TORSDOF 6
ENDMDL
MODEL 4
REMARK minimizedAffinity -9.7788887
REMARK minimizedRMSD -1
REMARK  Name = 
REMARK  7 active torsions:
REMARK  status: ('A' for Active; 'I' for Inactive)
REMARK    1  A    between atoms: C_1  and  N_2
REMARK    2  A    between atoms: C_3  and  C_5
REMARK    3  A    between atoms: C_9  and  O_11
REMARK    4  A    between atoms: O_11  and  C_12
REMARK    5  A    between atoms: C_15  and  N_18
REMARK    6  A    between atoms: N_21  and  C_22
REMARK    7  A    between atoms: C_24  and  C_29
REMARK                            x       y       z     vdW  Elec       q    Type
REMARK                         _______ _______ _______ _____ _____    ______ ____
ROOT
ATOM      1  C   UNL     1      21.415  32.872  16.130  0.00  0.00    +0.131 A 
ATOM      2  C   UNL     1      20.104  32.787  16.583  0.00  0.00    +0.086 A 
ATOM      3  C   UNL     1      19.709  33.594  17.642  0.00  0.00    +0.148 A 
ATOM      4  C   UNL     1      20.601  34.472  18.275  0.00  0.00    +0.070 A 
ATOM      5  C   UNL     1      21.939  34.463  17.877  0.00  0.00    +0.030 A 
ATOM      6  C   UNL     1      22.344  33.678  16.791  0.00  0.00    +0.048 A 
ATOM      7  F   UNL     1      18.431  33.544  18.049  0.00  0.00    -0.203 F 
ENDROOT
BRANCH   4   8
ATOM      8  N   UNL     1      20.080  35.277  19.306  0.00  0.00    -0.267 N 
ATOM      9  C   UNL     1      19.555  36.521  19.331  0.00  0.00    +0.308 C 
ATOM     10  O   UNL     1      19.683  37.190  20.359  0.00  0.00    -0.252 OA
ATOM     11  N   UNL     1      18.898  37.079  18.289  0.00  0.00    -0.269 N 
ATOM     12  H   UNL     1      20.237  34.919  20.243  0.00  0.00    +0.156 HD
ATOM     13  H   UNL     1      18.873  38.088  18.383  0.00  0.00    +0.156 HD
BRANCH  11  14
ATOM     14  C   UNL     1      18.102  36.540  17.265  0.00  0.00    +0.035 A 
ATOM     15  C   UNL     1      16.766  36.167  17.427  0.00  0.00    +0.037 A 
ATOM     16  C   UNL     1      16.038  35.573  16.375  0.00  0.00    +0.075 A 
ATOM     17  C   UNL     1      16.660  35.418  15.131  0.00  0.00    +0.053 A 
ATOM     18  C   UNL     1      17.977  35.845  14.945  0.00  0.00    +0.022 A 
ATOM     19  C   UNL     1      18.692  36.406  16.005  0.00  0.00    +0.025 A 
ATOM     20 CL   UNL     1      15.853  34.712  13.781  0.00  0.00    -0.083 Cl
BRANCH  16  21
ATOM     21  C   UNL     1      14.626  35.109  16.610  0.00  0.00    +0.419 C 
ATOM     22  F   UNL     1      14.473  33.762  16.438  0.00  0.00    -0.166 F 
ATOM     23  F   UNL     1      14.180  35.362  17.869  0.00  0.00    -0.166 F 
ATOM     24  F   UNL     1      13.730  35.674  15.756  0.00  0.00    -0.166 F 
ENDBRANCH  16  21
ENDBRANCH  11  14
ENDBRANCH   4   8
BRANCH   1  25
ATOM     25  O   UNL     1      21.812  32.092  15.071  0.00  0.00    -0.456 OA
BRANCH  25  30
ATOM     26  C   UNL     1      23.749  32.822  12.100  0.00  0.00    +0.129 A 
ATOM     27  N   UNL     1      23.347  34.065  11.737  0.00  0.00    -0.250 NA
ATOM     28  C   UNL     1      22.434  34.660  12.532  0.00  0.00    +0.115 A 
ATOM     29  C   UNL     1      21.894  34.065  13.660  0.00  0.00    +0.066 A 
ATOM     30  C   UNL     1      22.337  32.789  14.002  0.00  0.00    +0.132 A 
ATOM     31  C   UNL     1      23.274  32.140  13.210  0.00  0.00    +0.079 A 
BRANCH  26  34
ATOM     32  C   UNL     1      26.365  31.873  13.174  0.00  0.00    +0.128 C 
ATOM     33  N   UNL     1      25.981  31.811  11.784  0.00  0.00    -0.313 N 
ATOM     34  C   UNL     1      24.774  32.180  11.232  0.00  0.00    +0.262 C 
ATOM     35  O   UNL     1      24.564  32.007  10.036  0.00  0.00    -0.269 OA
ATOM     36  H   UNL     1      26.617  31.392  11.116  0.00  0.00    +0.149 HD
ENDBRANCH  26  34
ENDBRANCH  25  30
ENDBRANCH   1  25
TORSDOF 6
ENDMDL
MODEL 5
REMARK minimizedAffinity -9.76301861
REMARK minimizedRMSD -1
REMARK  Name = 
REMARK  7 active torsions:
REMARK  status: ('A' for Active; 'I' for Inactive)
REMARK    1  A    between atoms: C_1  and  N_2
REMARK    2  A    between atoms: C_3  and  C_5
REMARK    3  A    between atoms: C_9  and  O_11
REMARK    4  A    between atoms: O_11  and  C_12
REMARK    5  A    between atoms: C_15  and  N_18
REMARK    6  A    between atoms: N_21  and  C_22
REMARK    7  A    between atoms: C_24  and  C_29
REMARK                            x       y       z     vdW  Elec       q    Type
REMARK                         _______ _______ _______ _____ _____    ______ ____
ROOT
ATOM      1  C   UNL     1      19.264  34.320  17.171  0.00  0.00    +0.131 A 
ATOM      2  C   UNL     1      18.866  35.636  17.371  0.00  0.00    +0.086 A 
ATOM      3  C   UNL     1      17.517  35.906  17.562  0.00  0.00    +0.148 A 
ATOM      4  C   UNL     1      16.550  34.889  17.538  0.00  0.00    +0.070 A 
ATOM      5  C   UNL     1      16.957  33.591  17.228  0.00  0.00    +0.030 A 
ATOM      6  C   UNL     1      18.316  33.300  17.064  0.00  0.00    +0.048 A 
ATOM      7  F   UNL     1      17.139  37.171  17.800  0.00  0.00    -0.203 F 
ENDROOT
BRANCH   4   8
ATOM      8  N   UNL     1      15.218  35.271  17.792  0.00  0.00    -0.267 N 
ATOM      9  C   UNL     1      14.310  35.979  17.088  0.00  0.00    +0.308 C 
ATOM     10  O   UNL     1      13.463  36.626  17.709  0.00  0.00    -0.252 OA
ATOM     11  N   UNL     1      14.278  36.025  15.737  0.00  0.00    -0.269 N 
ATOM     12  H   UNL     1      14.902  35.096  18.741  0.00  0.00    +0.156 HD
ATOM     13  H   UNL     1      13.756  36.835  15.420  0.00  0.00    +0.156 HD
BRANCH  11  14
ATOM     14  C   UNL     1      14.630  35.096  14.743  0.00  0.00    +0.035 A 
ATOM     15  C   UNL     1      15.945  34.812  14.370  0.00  0.00    +0.037 A 
ATOM     16  C   UNL     1      16.232  33.913  13.321  0.00  0.00    +0.075 A 
ATOM     17  C   UNL     1      15.169  33.254  12.692  0.00  0.00    +0.053 A 
ATOM     18  C   UNL     1      13.855  33.489  13.103  0.00  0.00    +0.022 A 
ATOM     19  C   UNL     1      13.588  34.401  14.124  0.00  0.00    +0.025 A 
ATOM     20 CL   UNL     1      15.415  32.132  11.406  0.00  0.00    -0.083 Cl
BRANCH  16  21
ATOM     21  C   UNL     1      17.657  33.693  12.892  0.00  0.00    +0.419 C 
ATOM     22  F   UNL     1      17.829  33.804  11.541  0.00  0.00    -0.166 F 
ATOM     23  F   UNL     1      18.527  34.584  13.439  0.00  0.00    -0.166 F 
ATOM     24  F   UNL     1      18.121  32.452  13.202  0.00  0.00    -0.166 F 
ENDBRANCH  16  21
ENDBRANCH  11  14
ENDBRANCH   4   8
BRANCH   1  25
ATOM     25  O   UNL     1      20.598  34.039  16.999  0.00  0.00    -0.456 OA
BRANCH  25  30
ATOM     26  C   UNL     1      21.522  33.571  13.530  0.00  0.00    +0.129 A 
ATOM     27  N   UNL     1      21.932  34.798  13.126  0.00  0.00    -0.250 NA
ATOM     28  C   UNL     1      21.918  35.776  14.056  0.00  0.00    +0.115 A 
ATOM     29  C   UNL     1      21.499  35.586  15.362  0.00  0.00    +0.066 A 
ATOM     30  C   UNL     1      21.090  34.310  15.740  0.00  0.00    +0.132 A 
ATOM     31  C   UNL     1      21.087  33.276  14.813  0.00  0.00    +0.079 A 
BRANCH  26  34
ATOM     32  C   UNL     1      23.902  31.809  13.177  0.00  0.00    +0.128 C 
ATOM     33  N   UNL     1      22.712  31.748  12.364  0.00  0.00    -0.313 N 
ATOM     34  C   UNL     1      21.562  32.491  12.506  0.00  0.00    +0.262 C 
ATOM     35  O   UNL     1      20.597  32.283  11.777  0.00  0.00    -0.269 OA
ATOM     36  H   UNL     1      22.649  31.044  11.637  0.00  0.00    +0.149 HD
ENDBRANCH  26  34
ENDBRANCH  25  30
ENDBRANCH   1  25
TORSDOF 6
ENDMDL
