REMARK  Name = =
REMARK  2 active torsions:
REMARK  status: ('A' for Active; 'I' for Inactive)
REMARK    1  A    between atoms: C_3  and  N_18
REMARK    2  A    between atoms: C_11  and  N_15
REMARK                            x       y       z     vdW  Elec       q    Type
REMARK                         _______ _______ _______ _____ _____    ______ ____
ROOT
ATOM      1  C   UNL     1      17.634  32.645  11.425  0.00  0.00    +0.012 C 
ATOM      2  C   UNL     1      18.982  32.303  11.324  0.00  0.00    +0.023 C 
ATOM      3  C   UNL     1      19.831  32.463  12.415  0.00  0.00    +0.027 C 
ATOM      4  C   UNL     1      19.298  32.946  13.617  0.00  0.00    +0.051 C 
ATOM      5  C   UNL     1      17.958  33.296  13.751  0.00  0.00    +0.073 C 
ATOM      6  N   UNL     1      17.502  33.766  14.929  0.00  0.00    -0.247 NA
ATOM      7  C   UNL     1      16.202  34.100  15.050  0.00  0.00    +0.073 C 
ATOM      8  C   UNL     1      15.293  33.977  13.985  0.00  0.00    +0.001 C 
ATOM      9  C   UNL     1      13.948  34.337  14.154  0.00  0.00    +0.012 C 
ATOM     10  C   UNL     1      13.501  34.822  15.381  0.00  0.00    +0.023 C 
ATOM     11  C   UNL     1      14.385  34.951  16.450  0.00  0.00    +0.027 C 
ATOM     12  C   UNL     1      15.723  34.587  16.263  0.00  0.00    +0.051 C 
ATOM     13  C   UNL     1      15.773  33.489  12.766  0.00  0.00    +0.020 C 
ATOM     14  C   UNL     1      17.120  33.141  12.632  0.00  0.00    +0.001 C 
ENDROOT
BRANCH  11  15
ATOM     15  N   UNL     1      13.944  35.434  17.667  0.00  0.00    -0.358 N 
ATOM     16  H   UNL     1      12.978  35.695  17.803  0.00  0.00    +0.142 HD
ATOM     17  H   UNL     1      14.583  35.528  18.445  0.00  0.00    +0.142 HD
ENDBRANCH  11  15
BRANCH   3  18
ATOM     18  N   UNL     1      21.156  32.073  12.335  0.00  0.00    -0.358 N 
ATOM     19  H   UNL     1      21.788  32.262  13.100  0.00  0.00    +0.142 HD
ATOM     20  H   UNL     1      21.556  31.803  11.446  0.00  0.00    +0.142 HD
ENDBRANCH   3  18
TORSDOF 2
