REMARK  Name = =
REMARK  8 active torsions:
REMARK  status: ('A' for Active; 'I' for Inactive)
REMARK    1  A    between atoms: N_1  and  C_15
REMARK    2  A    between atoms: N_8  and  C_23
REMARK    3  A    between atoms: C_12  and  O_18
REMARK    4  A    between atoms: O_18  and  C_19
REMARK    5  A    between atoms: C_19  and  C_20
REMARK    6  A    between atoms: C_20  and  O_22
REMARK    7  A    between atoms: C_25  and  N_29
REMARK    8  A    between atoms: C_30  and  C_33
REMARK                            x       y       z     vdW  Elec       q    Type
REMARK                         _______ _______ _______ _____ _____    ______ ____
ROOT
ATOM      1  N   UNL     1      18.029  33.428  12.152  0.00  0.00    -0.284 N 
ATOM      2  C   UNL     1      19.274  33.233  12.739  0.00  0.00    +0.221 C 
ATOM      3  N   UNL     1      20.299  32.682  12.072  0.00  0.00    -0.220 NA
ATOM      4  C   UNL     1      21.466  32.561  12.732  0.00  0.00    +0.156 C 
ATOM      5  C   UNL     1      21.639  32.970  14.027  0.00  0.00    +0.181 C 
ATOM      6  C   UNL     1      20.544  33.528  14.659  0.00  0.00    +0.164 C 
ATOM      7  N   UNL     1      19.365  33.653  14.015  0.00  0.00    -0.196 NA
ATOM      8  N   UNL     1      20.684  33.937  16.004  0.00  0.00    -0.297 N 
ATOM      9  F   UNL     1      22.822  32.842  14.645  0.00  0.00    -0.200 F 
ATOM     10  H   UNL     1      17.426  33.895  12.813  0.00  0.00    +0.155 HD
ATOM     11  H   UNL     1      21.645  34.137  16.253  0.00  0.00    +0.154 HD
ENDROOT
BRANCH   1  15
ATOM     12  C   UNL     1      16.303  32.640   8.365  0.00  0.00    +0.121 C 
ATOM     13  C   UNL     1      17.174  31.715   8.941  0.00  0.00    +0.047 C 
ATOM     14  C   UNL     1      17.759  31.956  10.191  0.00  0.00    +0.027 C 
ATOM     15  C   UNL     1      17.480  33.122  10.905  0.00  0.00    +0.034 C 
ATOM     16  C   UNL     1      16.597  34.041  10.315  0.00  0.00    +0.027 C 
ATOM     17  C   UNL     1      16.014  33.805   9.063  0.00  0.00    +0.047 C 
BRANCH  12  18
ATOM     18  O   UNL     1      15.803  32.271   7.151  0.00  0.00    -0.490 OA
BRANCH  18  19
ATOM     19  C   UNL     1      16.137  30.983   6.619  0.00  0.00    +0.257 C 
BRANCH  19  20
ATOM     20  C   UNL     1      15.041  29.959   6.927  0.00  0.00    +0.200 C 
BRANCH  20  22
ATOM     21  C   UNL     1      16.134  27.942   6.374  0.00  0.00    +0.194 C 
ATOM     22  O   UNL     1      15.620  28.750   7.425  0.00  0.00    -0.380 OA
ENDBRANCH  20  22
ENDBRANCH  19  20
ENDBRANCH  18  19
ENDBRANCH  12  18
ENDBRANCH   1  15
BRANCH   8  23
ATOM     23  C   UNL     1      19.729  34.265  16.981  0.00  0.00    +0.034 C 
ATOM     24  C   UNL     1      18.401  33.830  16.805  0.00  0.00    +0.046 C 
ATOM     25  C   UNL     1      17.402  34.122  17.739  0.00  0.00    +0.035 C 
ATOM     26  C   UNL     1      17.749  34.826  18.897  0.00  0.00    +0.023 C 
ATOM     27  C   UNL     1      19.056  35.266  19.090  0.00  0.00    +0.004 C 
ATOM     28  C   UNL     1      20.035  34.990  18.135  0.00  0.00    +0.023 C 
BRANCH  25  29
ATOM     29  N   UNL     1      16.064  33.697  17.636  0.00  0.00    -0.282 N 
ATOM     30  C   UNL     1      14.963  34.226  17.033  0.00  0.00    +0.241 C 
ATOM     31  O   UNL     1      13.973  33.520  16.837  0.00  0.00    -0.271 OA
ATOM     32  H   UNL     1      15.852  32.792  18.041  0.00  0.00    +0.155 HD
BRANCH  30  33
ATOM     33  C   UNL     1      14.895  35.652  16.651  0.00  0.00    +0.060 C 
ATOM     34  C   UNL     1      14.058  36.509  17.251  0.00  0.00    +0.013 C 
ENDBRANCH  30  33
ENDBRANCH  25  29
ENDBRANCH   8  23
TORSDOF 8
