REMARK  Name = =
REMARK  2 active torsions:
REMARK  status: ('A' for Active; 'I' for Inactive)
REMARK    1  A    between atoms: C_1  and  N_17
REMARK    2  A    between atoms: C_15  and  N_17
REMARK                            x       y       z     vdW  Elec       q    Type
REMARK                         _______ _______ _______ _____ _____    ______ ____
ROOT
ATOM      1  C   UNL     1      16.159  32.909  11.803  0.00  0.00    +0.108 C 
ATOM      2  C   UNL     1      17.421  33.236  12.336  0.00  0.00    +0.082 C 
ATOM      3  C   UNL     1      17.568  34.063  13.458  0.00  0.00    +0.106 C 
ATOM      4  N   UNL     1      18.783  34.397  13.957  0.00  0.00    -0.251 NA
ATOM      5  C   UNL     1      18.811  35.201  15.044  0.00  0.00    +0.131 C 
ATOM      6  C   UNL     1      17.659  35.672  15.629  0.00  0.00    +0.131 C 
ATOM      7  N   UNL     1      16.435  35.356  15.152  0.00  0.00    -0.252 NA
ATOM      8  C   UNL     1      16.393  34.556  14.074  0.00  0.00    +0.090 C 
ATOM      9  C   UNL     1      15.151  34.202  13.567  0.00  0.00    +0.033 C 
ATOM     10  C   UNL     1      15.021  33.379  12.447  0.00  0.00    +0.043 C 
ATOM     11 BR   UNL     1      18.981  32.536  11.471  0.00  0.00    -0.045 Br
ENDROOT
BRANCH   1  12
ATOM     12  N   UNL     1      16.090  32.043  10.668  0.00  0.00    -0.208 N 
ATOM     13  H   UNL     1      16.371  31.079  10.824  0.00  0.00    +0.251 HD
BRANCH  12  17
ATOM     14  C   UNL     1      15.268  32.109   7.179  0.00  0.00    +0.221 C 
ATOM     15  C   UNL     1      15.474  33.601   7.472  0.00  0.00    +0.230 C 
ATOM     16  N   UNL     1      15.812  33.654   8.897  0.00  0.00    -0.279 N 
ATOM     17  C   UNL     1      15.799  32.388   9.407  0.00  0.00    +0.334 C 
ATOM     18  N   UNL     1      15.504  31.445   8.462  0.00  0.00    -0.238 N 
ATOM     19  H   UNL     1      16.192  34.449   9.392  0.00  0.00    +0.258 HD
ATOM     20  H   UNL     1      15.423  30.456   8.659  0.00  0.00    +0.244 HD
ENDBRANCH  12  17
ENDBRANCH   1  12
TORSDOF 2
