REMARK  Name = =
REMARK  4 active torsions:
REMARK  status: ('A' for Active; 'I' for Inactive)
REMARK    1  A    between atoms: C_1  and  O_23
REMARK    2  A    between atoms: C_2  and  O_21
REMARK    3  A    between atoms: N_11  and  C_13
REMARK    4  A    between atoms: O_23  and  C_31
REMARK                            x       y       z     vdW  Elec       q    Type
REMARK                         _______ _______ _______ _____ _____    ______ ____
ROOT
ATOM      1  C   UNL     1      21.988  34.153  14.649  0.00  0.00    +0.175 C 
ATOM      2  C   UNL     1      22.617  33.216  13.828  0.00  0.00    +0.164 C 
ATOM      3  C   UNL     1      21.849  32.577  12.852  0.00  0.00    +0.078 C 
ATOM      4  C   UNL     1      20.490  32.836  12.694  0.00  0.00    +0.080 C 
ATOM      5  C   UNL     1      19.869  33.775  13.533  0.00  0.00    +0.044 C 
ATOM      6  C   UNL     1      20.630  34.429  14.528  0.00  0.00    +0.063 C 
ATOM      7  C   UNL     1      18.492  33.964  13.316  0.00  0.00    +0.134 C 
ATOM      8  N   UNL     1      17.816  33.281  12.376  0.00  0.00    -0.220 NA
ATOM      9  C   UNL     1      18.514  32.410  11.646  0.00  0.00    +0.223 C 
ATOM     10  N   UNL     1      19.825  32.164  11.754  0.00  0.00    -0.235 NA
ATOM     11  N   UNL     1      17.783  34.910  14.087  0.00  0.00    -0.297 N 
ATOM     12  H   UNL     1      18.206  35.827  14.067  0.00  0.00    +0.154 HD
ENDROOT
BRANCH  11  13
ATOM     13  C   UNL     1      16.429  34.862  14.473  0.00  0.00    +0.070 C 
ATOM     14  C   UNL     1      15.946  35.484  15.638  0.00  0.00    +0.163 C 
ATOM     15  C   UNL     1      14.599  35.393  15.994  0.00  0.00    +0.078 C 
ATOM     16  C   UNL     1      13.708  34.679  15.194  0.00  0.00    +0.023 C 
ATOM     17  C   UNL     1      14.168  34.061  14.032  0.00  0.00    +0.003 C 
ATOM     18  C   UNL     1      15.516  34.154  13.675  0.00  0.00    +0.026 C 
ATOM     19 CL   UNL     1      14.011  36.179  17.412  0.00  0.00    -0.081 Cl
ATOM     20  F   UNL     1      16.772  36.233  16.388  0.00  0.00    -0.202 F 
ENDBRANCH  11  13
BRANCH   2  21
ATOM     21  O   UNL     1      23.948  32.997  14.068  0.00  0.00    -0.491 OA
ATOM     22  C   UNL     1      24.681  32.319  13.053  0.00  0.00    +0.277 C 
ENDBRANCH   2  21
BRANCH   1  23
ATOM     23  O   UNL     1      22.705  34.773  15.676  0.00  0.00    -0.408 OA
BRANCH  23  31
ATOM     24  C   UNL     1      20.446  37.032  16.625  0.00  0.00    +0.033 C 
ATOM     25  C   UNL     1      21.807  36.784  17.279  0.00  0.00    +0.122 C 
ATOM     26  C   UNL     1      22.155  37.815  18.380  0.00  0.00    +0.153 C 
ATOM     27  N   UNL     1      21.556  37.500  19.743  0.00  0.00    +0.235 N 
ATOM     28  C   UNL     1      21.823  36.059  20.153  0.00  0.00    +0.150 C 
ATOM     29  C   UNL     1      21.364  35.076  19.073  0.00  0.00    +0.162 C 
ATOM     30  N   UNL     1      21.919  35.395  17.758  0.00  0.00    -0.254 N 
ATOM     31  C   UNL     1      22.320  34.342  16.936  0.00  0.00    +0.409 C 
ATOM     32  O   UNL     1      22.347  33.179  17.323  0.00  0.00    -0.226 OA
ATOM     33  C   UNL     1      20.131  37.926  19.927  0.00  0.00    +0.190 C 
ATOM     34  H   UNL     1      22.089  38.076  20.409  0.00  0.00    +0.203 HD
ENDBRANCH  23  31
ENDBRANCH   1  23
TORSDOF 4
