MODEL 1
REMARK minimizedAffinity -10.136095
REMARK minimizedRMSD -1
REMARK  Name = 
REMARK  9 active torsions:
REMARK  status: ('A' for Active; 'I' for Inactive)
REMARK    1  A    between atoms: C_1  and  C_2
REMARK    2  A    between atoms: C_2  and  C_30
REMARK    3  A    between atoms: N_7  and  C_8
REMARK    4  A    between atoms: C_11  and  O_14
REMARK    5  A    between atoms: O_14  and  C_15
REMARK    6  A    between atoms: C_15  and  C_16
REMARK    7  A    between atoms: C_18  and  C_22
REMARK    8  A    between atoms: N_24  and  C_25
REMARK    9  A    between atoms: N_24  and  C_26
REMARK                            x       y       z     vdW  Elec       q    Type
REMARK                         _______ _______ _______ _____ _____    ______ ____
ROOT
ATOM      1  C   UNL     1      20.517  33.309  13.562  0.00  0.00    +0.099 A 
ATOM      2  C   UNL     1      19.491  34.041  14.159  0.00  0.00    +0.064 A 
ATOM      3  C   UNL     1      18.180  34.006  13.645  0.00  0.00    +0.086 A 
ATOM      4  C   UNL     1      17.887  33.209  12.535  0.00  0.00    +0.139 A 
ATOM      5  C   UNL     1      18.935  32.489  11.937  0.00  0.00    +0.050 A 
ATOM      6  C   UNL     1      20.236  32.534  12.439  0.00  0.00    +0.044 A 
ATOM      7 CL   UNL     1      17.069  35.068  14.422  0.00  0.00    -0.080 Cl
ENDROOT
BRANCH   1  14
ATOM      8  C   UNL     1      22.509  35.066  12.343  0.00  0.00    +0.093 C 
ATOM      9  C   UNL     1      22.971  33.932  13.276  0.00  0.00    +0.199 C 
ATOM     10  N   UNL     1      23.976  34.493  14.176  0.00  0.00    -0.246 N 
ATOM     11  C   UNL     1      24.116  34.086  15.434  0.00  0.00    +0.347 C 
ATOM     12  N   UNL     1      23.238  33.261  15.993  0.00  0.00    -0.196 N 
ATOM     13  C   UNL     1      22.102  32.945  15.352  0.00  0.00    +0.346 C 
ATOM     14  N   UNL     1      21.866  33.363  14.067  0.00  0.00    -0.159 N 
ATOM     15  N   UNL     1      21.200  32.186  16.033  0.00  0.00    -0.253 N 
ATOM     16  N   UNL     1      25.167  34.521  16.159  0.00  0.00    -0.252 N 
ATOM     17  C   UNL     1      23.662  32.840  12.444  0.00  0.00    +0.093 C 
ATOM     18  H   UNL     1      24.633  35.176  13.806  0.00  0.00    +0.261 HD
ATOM     19  H   UNL     1      23.389  32.931  16.933  0.00  0.00    +0.270 HD
ATOM     20  H   UNL     1      21.341  31.857  16.982  0.00  0.00    +0.241 HD
ATOM     21  H   UNL     1      20.343  31.849  15.597  0.00  0.00    +0.241 HD
ATOM     22  H   UNL     1      25.872  35.147  15.774  0.00  0.00    +0.241 HD
ATOM     23  H   UNL     1      25.331  34.248  17.123  0.00  0.00    +0.241 HD
ENDBRANCH   1  14
BRANCH   4  24
ATOM     24  O   UNL     1      16.715  33.026  11.865  0.00  0.00    -0.486 OA
BRANCH  24  25
ATOM     25  C   UNL     1      16.088  34.072  11.119  0.00  0.00    +0.264 C 
BRANCH  25  26
ATOM     26  C   UNL     1      15.823  33.750   9.665  0.00  0.00    -0.010 A 
ATOM     27  C   UNL     1      15.898  32.418   9.230  0.00  0.00    +0.020 A 
ATOM     28  C   UNL     1      15.567  32.074   7.913  0.00  0.00    +0.037 A 
ATOM     29  C   UNL     1      15.121  33.059   7.027  0.00  0.00    +0.013 A 
ATOM     30  C   UNL     1      15.040  34.386   7.449  0.00  0.00    +0.001 A 
ATOM     31  C   UNL     1      15.382  34.728   8.761  0.00  0.00    +0.007 A 
BRANCH  28  32
ATOM     32  C   UNL     1      15.563  30.637   7.542  0.00  0.00    +0.246 C 
ATOM     33  O   UNL     1      14.602  29.970   7.919  0.00  0.00    -0.270 OA
ATOM     34  N   UNL     1      16.613  30.109   6.796  0.00  0.00    -0.304 N 
ATOM     35  C   UNL     1      17.911  30.736   6.607  0.00  0.00    +0.132 C 
ATOM     36  C   UNL     1      16.461  28.774   6.239  0.00  0.00    +0.132 C 
ENDBRANCH  28  32
ENDBRANCH  25  26
ENDBRANCH  24  25
ENDBRANCH   4  24
TORSDOF 5
ENDMDL
MODEL 2
REMARK minimizedAffinity -10.0944815
REMARK minimizedRMSD -1
REMARK  Name = 
REMARK  9 active torsions:
REMARK  status: ('A' for Active; 'I' for Inactive)
REMARK    1  A    between atoms: C_1  and  C_2
REMARK    2  A    between atoms: C_2  and  C_30
REMARK    3  A    between atoms: N_7  and  C_8
REMARK    4  A    between atoms: C_11  and  O_14
REMARK    5  A    between atoms: O_14  and  C_15
REMARK    6  A    between atoms: C_15  and  C_16
REMARK    7  A    between atoms: C_18  and  C_22
REMARK    8  A    between atoms: N_24  and  C_25
REMARK    9  A    between atoms: N_24  and  C_26
REMARK                            x       y       z     vdW  Elec       q    Type
REMARK                         _______ _______ _______ _____ _____    ______ ____
ROOT
ATOM      1  C   UNL     1      19.650  34.151  14.705  0.00  0.00    +0.099 A 
ATOM      2  C   UNL     1      18.318  34.114  14.293  0.00  0.00    +0.064 A 
ATOM      3  C   UNL     1      17.967  33.629  13.018  0.00  0.00    +0.086 A 
ATOM      4  C   UNL     1      18.957  33.153  12.155  0.00  0.00    +0.139 A 
ATOM      5  C   UNL     1      20.295  33.212  12.580  0.00  0.00    +0.050 A 
ATOM      6  C   UNL     1      20.644  33.703  13.838  0.00  0.00    +0.044 A 
ATOM      7 CL   UNL     1      16.296  33.776  12.623  0.00  0.00    -0.080 Cl
ENDROOT
BRANCH   1  14
ATOM      8  C   UNL     1      19.928  37.028  15.144  0.00  0.00    +0.093 C 
ATOM      9  C   UNL     1      20.523  36.046  16.169  0.00  0.00    +0.199 C 
ATOM     10  N   UNL     1      20.165  36.535  17.497  0.00  0.00    -0.246 N 
ATOM     11  C   UNL     1      19.918  35.718  18.518  0.00  0.00    +0.347 C 
ATOM     12  N   UNL     1      19.822  34.405  18.341  0.00  0.00    -0.196 N 
ATOM     13  C   UNL     1      19.813  33.887  17.103  0.00  0.00    +0.346 C 
ATOM     14  N   UNL     1      20.018  34.672  15.997  0.00  0.00    -0.159 N 
ATOM     15  N   UNL     1      19.598  32.546  16.998  0.00  0.00    -0.253 N 
ATOM     16  N   UNL     1      19.758  36.232  19.754  0.00  0.00    -0.252 N 
ATOM     17  C   UNL     1      22.057  36.077  16.069  0.00  0.00    +0.093 C 
ATOM     18  H   UNL     1      20.165  37.538  17.663  0.00  0.00    +0.261 HD
ATOM     19  H   UNL     1      19.678  33.802  19.136  0.00  0.00    +0.270 HD
ATOM     20  H   UNL     1      19.445  31.934  17.792  0.00  0.00    +0.241 HD
ATOM     21  H   UNL     1      19.640  32.064  16.100  0.00  0.00    +0.241 HD
ATOM     22  H   UNL     1      19.831  37.229  19.944  0.00  0.00    +0.241 HD
ATOM     23  H   UNL     1      19.567  35.663  20.574  0.00  0.00    +0.241 HD
ENDBRANCH   1  14
BRANCH   4  24
ATOM     24  O   UNL     1      18.860  32.656  10.891  0.00  0.00    -0.486 OA
BRANCH  24  25
ATOM     25  C   UNL     1      17.839  31.731  10.507  0.00  0.00    +0.264 C 
BRANCH  25  26
ATOM     26  C   UNL     1      17.066  32.112   9.264  0.00  0.00    -0.010 A 
ATOM     27  C   UNL     1      16.800  31.136   8.292  0.00  0.00    +0.020 A 
ATOM     28  C   UNL     1      16.007  31.432   7.175  0.00  0.00    +0.037 A 
ATOM     29  C   UNL     1      15.442  32.703   7.040  0.00  0.00    +0.013 A 
ATOM     30  C   UNL     1      15.697  33.681   8.001  0.00  0.00    +0.001 A 
ATOM     31  C   UNL     1      16.498  33.386   9.109  0.00  0.00    +0.007 A 
BRANCH  28  32
ATOM     32  C   UNL     1      15.673  30.330   6.238  0.00  0.00    +0.246 C 
ATOM     33  O   UNL     1      16.418  30.178   5.272  0.00  0.00    -0.270 OA
ATOM     34  N   UNL     1      14.564  29.526   6.481  0.00  0.00    -0.304 N 
ATOM     35  C   UNL     1      13.473  29.844   7.388  0.00  0.00    +0.132 C 
ATOM     36  C   UNL     1      14.407  28.312   5.695  0.00  0.00    +0.132 C 
ENDBRANCH  28  32
ENDBRANCH  25  26
ENDBRANCH  24  25
ENDBRANCH   4  24
TORSDOF 5
ENDMDL
MODEL 3
REMARK minimizedAffinity -9.95014
REMARK minimizedRMSD -1
REMARK  Name = 
REMARK  9 active torsions:
REMARK  status: ('A' for Active; 'I' for Inactive)
REMARK    1  A    between atoms: C_1  and  C_2
REMARK    2  A    between atoms: C_2  and  C_30
REMARK    3  A    between atoms: N_7  and  C_8
REMARK    4  A    between atoms: C_11  and  O_14
REMARK    5  A    between atoms: O_14  and  C_15
REMARK    6  A    between atoms: C_15  and  C_16
REMARK    7  A    between atoms: C_18  and  C_22
REMARK    8  A    between atoms: N_24  and  C_25
REMARK    9  A    between atoms: N_24  and  C_26
REMARK                            x       y       z     vdW  Elec       q    Type
REMARK                         _______ _______ _______ _____ _____    ______ ____
ROOT
ATOM      1  C   UNL     1      20.052  34.231  14.368  0.00  0.00    +0.099 A 
ATOM      2  C   UNL     1      18.714  34.603  14.493  0.00  0.00    +0.064 A 
ATOM      3  C   UNL     1      17.726  34.055  13.651  0.00  0.00    +0.086 A 
ATOM      4  C   UNL     1      18.079  33.105  12.688  0.00  0.00    +0.139 A 
ATOM      5  C   UNL     1      19.434  32.752  12.566  0.00  0.00    +0.050 A 
ATOM      6  C   UNL     1      20.413  33.303  13.393  0.00  0.00    +0.044 A 
ATOM      7 CL   UNL     1      16.151  34.721  13.853  0.00  0.00    -0.080 Cl
ENDROOT
BRANCH   1  14
ATOM      8  C   UNL     1      20.784  32.990  16.912  0.00  0.00    +0.093 C 
ATOM      9  C   UNL     1      21.205  34.444  16.630  0.00  0.00    +0.199 C 
ATOM     10  N   UNL     1      22.602  34.577  17.037  0.00  0.00    -0.246 N 
ATOM     11  C   UNL     1      23.457  35.377  16.406  0.00  0.00    +0.347 C 
ATOM     12  N   UNL     1      23.128  35.975  15.267  0.00  0.00    -0.196 N 
ATOM     13  C   UNL     1      21.983  35.660  14.642  0.00  0.00    +0.346 C 
ATOM     14  N   UNL     1      21.069  34.809  15.209  0.00  0.00    -0.159 N 
ATOM     15  N   UNL     1      21.768  36.230  13.424  0.00  0.00    -0.253 N 
ATOM     16  N   UNL     1      24.682  35.583  16.930  0.00  0.00    -0.252 N 
ATOM     17  C   UNL     1      20.380  35.391  17.516  0.00  0.00    +0.093 C 
ATOM     18  H   UNL     1      22.915  34.086  17.871  0.00  0.00    +0.261 HD
ATOM     19  H   UNL     1      23.776  36.612  14.830  0.00  0.00    +0.270 HD
ATOM     20  H   UNL     1      22.419  36.865  12.975  0.00  0.00    +0.241 HD
ATOM     21  H   UNL     1      20.896  36.094  12.914  0.00  0.00    +0.241 HD
ATOM     22  H   UNL     1      24.979  35.155  17.805  0.00  0.00    +0.241 HD
ATOM     23  H   UNL     1      25.380  36.181  16.499  0.00  0.00    +0.241 HD
ENDBRANCH   1  14
BRANCH   4  24
ATOM     24  O   UNL     1      17.313  32.455  11.769  0.00  0.00    -0.486 OA
BRANCH  24  25
ATOM     25  C   UNL     1      17.855  31.928  10.554  0.00  0.00    +0.264 C 
BRANCH  25  26
ATOM     26  C   UNL     1      17.071  32.262   9.306  0.00  0.00    -0.010 A 
ATOM     27  C   UNL     1      16.845  31.263   8.346  0.00  0.00    +0.020 A 
ATOM     28  C   UNL     1      16.044  31.514   7.224  0.00  0.00    +0.037 A 
ATOM     29  C   UNL     1      15.430  32.760   7.072  0.00  0.00    +0.013 A 
ATOM     30  C   UNL     1      15.645  33.760   8.020  0.00  0.00    +0.001 A 
ATOM     31  C   UNL     1      16.454  33.511   9.133  0.00  0.00    +0.007 A 
BRANCH  28  32
ATOM     32  C   UNL     1      15.756  30.388   6.301  0.00  0.00    +0.246 C 
ATOM     33  O   UNL     1      16.533  30.226   5.363  0.00  0.00    -0.270 OA
ATOM     34  N   UNL     1      14.650  29.573   6.526  0.00  0.00    -0.304 N 
ATOM     35  C   UNL     1      13.527  29.894   7.392  0.00  0.00    +0.132 C 
ATOM     36  C   UNL     1      14.535  28.340   5.762  0.00  0.00    +0.132 C 
ENDBRANCH  28  32
ENDBRANCH  25  26
ENDBRANCH  24  25
ENDBRANCH   4  24
TORSDOF 5
ENDMDL
MODEL 4
REMARK minimizedAffinity -9.47878361
REMARK minimizedRMSD -1
REMARK  Name = 
REMARK  9 active torsions:
REMARK  status: ('A' for Active; 'I' for Inactive)
REMARK    1  A    between atoms: C_1  and  C_2
REMARK    2  A    between atoms: C_2  and  C_30
REMARK    3  A    between atoms: N_7  and  C_8
REMARK    4  A    between atoms: C_11  and  O_14
REMARK    5  A    between atoms: O_14  and  C_15
REMARK    6  A    between atoms: C_15  and  C_16
REMARK    7  A    between atoms: C_18  and  C_22
REMARK    8  A    between atoms: N_24  and  C_25
REMARK    9  A    between atoms: N_24  and  C_26
REMARK                            x       y       z     vdW  Elec       q    Type
REMARK                         _______ _______ _______ _____ _____    ______ ____
ROOT
ATOM      1  C   UNL     1      20.413  34.171  15.107  0.00  0.00    +0.099 A 
ATOM      2  C   UNL     1      21.492  33.658  14.389  0.00  0.00    +0.064 A 
ATOM      3  C   UNL     1      21.307  33.059  13.128  0.00  0.00    +0.086 A 
ATOM      4  C   UNL     1      20.028  32.994  12.568  0.00  0.00    +0.139 A 
ATOM      5  C   UNL     1      18.949  33.503  13.310  0.00  0.00    +0.050 A 
ATOM      6  C   UNL     1      19.132  34.086  14.564  0.00  0.00    +0.044 A 
ATOM      7 CL   UNL     1      22.725  32.362  12.442  0.00  0.00    -0.080 Cl
ENDROOT
BRANCH   1  14
ATOM      8  C   UNL     1      20.180  37.059  15.496  0.00  0.00    +0.093 C 
ATOM      9  C   UNL     1      20.852  36.201  16.583  0.00  0.00    +0.199 C 
ATOM     10  N   UNL     1      20.320  36.640  17.871  0.00  0.00    -0.246 N 
ATOM     11  C   UNL     1      20.136  35.806  18.890  0.00  0.00    +0.347 C 
ATOM     12  N   UNL     1      20.271  34.493  18.739  0.00  0.00    -0.196 N 
ATOM     13  C   UNL     1      20.439  33.966  17.516  0.00  0.00    +0.346 C 
ATOM     14  N   UNL     1      20.593  34.761  16.409  0.00  0.00    -0.159 N 
ATOM     15  N   UNL     1      20.456  32.607  17.428  0.00  0.00    -0.253 N 
ATOM     16  N   UNL     1      19.803  36.300  20.100  0.00  0.00    -0.252 N 
ATOM     17  C   UNL     1      22.362  36.486  16.592  0.00  0.00    +0.093 C 
ATOM     18  H   UNL     1      20.143  37.632  18.012  0.00  0.00    +0.261 HD
ATOM     19  H   UNL     1      20.170  33.884  19.535  0.00  0.00    +0.270 HD
ATOM     20  H   UNL     1      20.347  31.988  18.223  0.00  0.00    +0.241 HD
ATOM     21  H   UNL     1      20.643  32.128  16.547  0.00  0.00    +0.241 HD
ATOM     22  H   UNL     1      19.696  37.298  20.270  0.00  0.00    +0.241 HD
ATOM     23  H   UNL     1      19.649  35.718  20.917  0.00  0.00    +0.241 HD
ENDBRANCH   1  14
BRANCH   4  24
ATOM     24  O   UNL     1      19.609  32.461  11.387  0.00  0.00    -0.486 OA
BRANCH  24  25
ATOM     25  C   UNL     1      18.333  31.831  11.241  0.00  0.00    +0.264 C 
BRANCH  25  26
ATOM     26  C   UNL     1      17.473  32.379  10.124  0.00  0.00    -0.010 A 
ATOM     27  C   UNL     1      16.989  31.507   9.137  0.00  0.00    +0.020 A 
ATOM     28  C   UNL     1      16.114  31.965   8.142  0.00  0.00    +0.037 A 
ATOM     29  C   UNL     1      15.686  33.295   8.150  0.00  0.00    +0.013 A 
ATOM     30  C   UNL     1      16.159  34.170   9.128  0.00  0.00    +0.001 A 
ATOM     31  C   UNL     1      17.041  33.714  10.112  0.00  0.00    +0.007 A 
BRANCH  28  32
ATOM     32  C   UNL     1      15.552  30.974   7.191  0.00  0.00    +0.246 C 
ATOM     33  O   UNL     1      14.350  30.734   7.285  0.00  0.00    -0.270 OA
ATOM     34  N   UNL     1      16.379  30.372   6.247  0.00  0.00    -0.304 N 
ATOM     35  C   UNL     1      17.832  30.350   6.290  0.00  0.00    +0.132 C 
ATOM     36  C   UNL     1      15.760  29.604   5.178  0.00  0.00    +0.132 C 
ENDBRANCH  28  32
ENDBRANCH  25  26
ENDBRANCH  24  25
ENDBRANCH   4  24
TORSDOF 5
ENDMDL
MODEL 5
REMARK minimizedAffinity -9.44377708
REMARK minimizedRMSD -1
REMARK  Name = 
REMARK  9 active torsions:
REMARK  status: ('A' for Active; 'I' for Inactive)
REMARK    1  A    between atoms: C_1  and  C_2
REMARK    2  A    between atoms: C_2  and  C_30
REMARK    3  A    between atoms: N_7  and  C_8
REMARK    4  A    between atoms: C_11  and  O_14
REMARK    5  A    between atoms: O_14  and  C_15
REMARK    6  A    between atoms: C_15  and  C_16
REMARK    7  A    between atoms: C_18  and  C_22
REMARK    8  A    between atoms: N_24  and  C_25
REMARK    9  A    between atoms: N_24  and  C_26
REMARK                            x       y       z     vdW  Elec       q    Type
REMARK                         _______ _______ _______ _____ _____    ______ ____
ROOT
ATOM      1  C   UNL     1      18.579  34.829  15.215  0.00  0.00    +0.099 A 
ATOM      2  C   UNL     1      19.730  34.179  14.772  0.00  0.00    +0.064 A 
ATOM      3  C   UNL     1      19.741  33.472  13.553  0.00  0.00    +0.086 A 
ATOM      4  C   UNL     1      18.592  33.435  12.758  0.00  0.00    +0.139 A 
ATOM      5  C   UNL     1      17.437  34.083  13.227  0.00  0.00    +0.050 A 
ATOM      6  C   UNL     1      17.424  34.773  14.439  0.00  0.00    +0.044 A 
ATOM      7 CL   UNL     1      21.202  32.621  13.222  0.00  0.00    -0.080 Cl
ENDROOT
BRANCH   1  14
ATOM      8  C   UNL     1      17.234  33.689  17.547  0.00  0.00    +0.093 C 
ATOM      9  C   UNL     1      17.599  35.185  17.540  0.00  0.00    +0.199 C 
ATOM     10  N   UNL     1      18.186  35.493  18.841  0.00  0.00    -0.246 N 
ATOM     11  C   UNL     1      19.151  36.396  18.994  0.00  0.00    +0.347 C 
ATOM     12  N   UNL     1      19.750  36.949  17.945  0.00  0.00    -0.196 N 
ATOM     13  C   UNL     1      19.506  36.491  16.707  0.00  0.00    +0.346 C 
ATOM     14  N   UNL     1      18.555  35.530  16.474  0.00  0.00    -0.159 N 
ATOM     15  N   UNL     1      20.240  37.031  15.695  0.00  0.00    -0.253 N 
ATOM     16  N   UNL     1      19.532  36.755  20.237  0.00  0.00    -0.252 N 
ATOM     17  C   UNL     1      16.314  36.019  17.410  0.00  0.00    +0.093 C 
ATOM     18  H   UNL     1      17.799  35.046  19.668  0.00  0.00    +0.261 HD
ATOM     19  H   UNL     1      20.447  37.662  18.085  0.00  0.00    +0.270 HD
ATOM     20  H   UNL     1      20.949  37.743  15.829  0.00  0.00    +0.241 HD
ATOM     21  H   UNL     1      20.072  36.786  14.720  0.00  0.00    +0.241 HD
ATOM     22  H   UNL     1      19.099  36.368  21.073  0.00  0.00    +0.241 HD
ATOM     23  H   UNL     1      20.261  37.437  20.421  0.00  0.00    +0.241 HD
ENDBRANCH   1  14
BRANCH   4  24
ATOM     24  O   UNL     1      18.364  32.816  11.566  0.00  0.00    -0.486 OA
BRANCH  24  25
ATOM     25  C   UNL     1      17.064  32.372  11.170  0.00  0.00    +0.264 C 
BRANCH  25  26
ATOM     26  C   UNL     1      16.771  32.490   9.691  0.00  0.00    -0.010 A 
ATOM     27  C   UNL     1      17.058  31.408   8.844  0.00  0.00    +0.020 A 
ATOM     28  C   UNL     1      16.714  31.448   7.486  0.00  0.00    +0.037 A 
ATOM     29  C   UNL     1      16.044  32.561   6.971  0.00  0.00    +0.013 A 
ATOM     30  C   UNL     1      15.751  33.642   7.804  0.00  0.00    +0.001 A 
ATOM     31  C   UNL     1      16.106  33.603   9.155  0.00  0.00    +0.007 A 
BRANCH  28  32
ATOM     32  C   UNL     1      16.946  30.234   6.666  0.00  0.00    +0.246 C 
ATOM     33  O   UNL     1      18.016  30.167   6.064  0.00  0.00    -0.270 OA
ATOM     34  N   UNL     1      15.976  29.237   6.612  0.00  0.00    -0.304 N 
ATOM     35  C   UNL     1      14.587  29.390   7.012  0.00  0.00    +0.132 C 
ATOM     36  C   UNL     1      16.331  27.961   6.010  0.00  0.00    +0.132 C 
ENDBRANCH  28  32
ENDBRANCH  25  26
ENDBRANCH  24  25
ENDBRANCH   4  24
TORSDOF 5
ENDMDL
