REMARK  Name = =
REMARK  1 active torsions:
REMARK  status: ('A' for Active; 'I' for Inactive)
REMARK    1  A    between atoms: C_9  and  N_12
REMARK                            x       y       z     vdW  Elec       q    Type
REMARK                         _______ _______ _______ _____ _____    ______ ____
ROOT
ATOM      1  C   UNL     1      16.828  33.512   9.653  0.00  0.00    +0.065 C 
ATOM      2  C   UNL     1      16.507  32.429   8.665  0.00  0.00    +0.039 C 
ATOM      3  N   UNL     1      15.312  31.805   8.799  0.00  0.00    -0.252 NA
ATOM      4  C   UNL     1      14.992  30.832   7.926  0.00  0.00    +0.071 C 
ATOM      5  C   UNL     1      15.853  30.439   6.883  0.00  0.00    +0.002 C 
ATOM      6  C   UNL     1      17.080  31.102   6.764  0.00  0.00    +0.012 C 
ATOM      7  C   UNL     1      17.413  32.108   7.664  0.00  0.00    +0.023 C 
ATOM      8  C   UNL     1      15.472  29.414   5.996  0.00  0.00    +0.032 C 
ATOM      9  C   UNL     1      14.252  28.753   6.141  0.00  0.00    +0.025 C 
ATOM     10  C   UNL     1      13.391  29.170   7.154  0.00  0.00    +0.025 C 
ATOM     11  C   UNL     1      13.770  30.188   8.038  0.00  0.00    +0.030 C 
ENDROOT
BRANCH   9  12
ATOM     12  N   UNL     1      13.854  27.794   5.227  0.00  0.00    -0.358 N 
ATOM     13  H   UNL     1      14.529  27.407   4.583  0.00  0.00    +0.142 HD
ATOM     14  H   UNL     1      13.029  27.240   5.418  0.00  0.00    +0.142 HD
ENDBRANCH   9  12
TORSDOF 1
