REMARK  Name = =
REMARK  5 active torsions:
REMARK  status: ('A' for Active; 'I' for Inactive)
REMARK    1  A    between atoms: N_1  and  C_15
REMARK    2  A    between atoms: N_4  and  C_19
REMARK    3  A    between atoms: C_19  and  C_20
REMARK    4  A    between atoms: C_20  and  C_21
REMARK    5  A    between atoms: C_23  and  N_27
REMARK                            x       y       z     vdW  Elec       q    Type
REMARK                         _______ _______ _______ _____ _____    ______ ____
ROOT
ATOM      1  N   UNL     1      17.965  34.614  14.691  0.00  0.00    -0.319 N 
ATOM      2  C   UNL     1      16.794  35.426  14.333  0.00  0.00    +0.156 C 
ATOM      3  C   UNL     1      15.561  34.523  14.119  0.00  0.00    +0.150 C 
ATOM      4  N   UNL     1      15.852  33.391  13.125  0.00  0.00    +0.238 N 
ATOM      5  C   UNL     1      17.065  32.587  13.598  0.00  0.00    +0.150 C 
ATOM      6  C   UNL     1      18.302  33.482  13.816  0.00  0.00    +0.156 C 
ATOM      7  H   UNL     1      15.040  32.759  13.194  0.00  0.00    +0.203 HD
ENDROOT
BRANCH   1  15
ATOM      8  C   UNL     1      18.790  38.693  19.767  0.00  0.00    +0.065 C 
ATOM      9  C   UNL     1      18.811  37.797  18.565  0.00  0.00    +0.039 C 
ATOM     10  N   UNL     1      19.987  37.673  17.905  0.00  0.00    -0.252 NA
ATOM     11  C   UNL     1      20.046  36.880  16.822  0.00  0.00    +0.073 C 
ATOM     12  C   UNL     1      18.933  36.162  16.334  0.00  0.00    +0.021 C 
ATOM     13  C   UNL     1      17.727  36.314  17.043  0.00  0.00    +0.013 C 
ATOM     14  C   UNL     1      17.662  37.136  18.165  0.00  0.00    +0.024 C 
ATOM     15  C   UNL     1      19.066  35.336  15.181  0.00  0.00    +0.039 C 
ATOM     16  C   UNL     1      20.312  35.251  14.543  0.00  0.00    +0.024 C 
ATOM     17  C   UNL     1      21.404  35.960  15.030  0.00  0.00    +0.004 C 
ATOM     18  C   UNL     1      21.258  36.764  16.161  0.00  0.00    +0.028 C 
ENDBRANCH   1  15
BRANCH   4  19
ATOM     19  C   UNL     1      15.905  33.867  11.686  0.00  0.00    +0.136 C 
BRANCH  19  20
ATOM     20  C   UNL     1      16.900  33.065  10.830  0.00  0.00    +0.086 C 
BRANCH  20  21
ATOM     21  C   UNL     1      16.401  32.810   9.428  0.00  0.00    -0.041 C 
ATOM     22  C   UNL     1      16.611  31.564   8.809  0.00  0.00    +0.027 C 
ATOM     23  C   UNL     1      16.217  31.328   7.481  0.00  0.00    +0.038 C 
ATOM     24  C   UNL     1      15.605  32.377   6.787  0.00  0.00    +0.023 C 
ATOM     25  C   UNL     1      15.364  33.610   7.399  0.00  0.00    +0.002 C 
ATOM     26  C   UNL     1      15.752  33.825   8.716  0.00  0.00    +0.004 C 
BRANCH  23  27
ATOM     27  N   UNL     1      16.416  30.061   6.878  0.00  0.00    -0.254 N 
ATOM     28  C   UNL     1      15.455  28.978   6.941  0.00  0.00    +0.134 C 
ATOM     29  C   UNL     1      15.969  27.947   5.945  0.00  0.00    +0.125 C 
ATOM     30  N   UNL     1      17.310  28.367   5.681  0.00  0.00    -0.297 N 
ATOM     31  C   UNL     1      17.557  29.643   6.165  0.00  0.00    +0.307 C 
ATOM     32  O   UNL     1      18.612  30.224   5.980  0.00  0.00    -0.252 OA
ATOM     33  H   UNL     1      17.994  27.894   5.106  0.00  0.00    +0.150 HD
ENDBRANCH  23  27
ENDBRANCH  20  21
ENDBRANCH  19  20
ENDBRANCH   4  19
TORSDOF 5
