REMARK  Name = =
REMARK  6 active torsions:
REMARK  status: ('A' for Active; 'I' for Inactive)
REMARK    1  A    between atoms: C_1  and  N_20
REMARK    2  A    between atoms: C_2  and  C_7
REMARK    3  A    between atoms: C_4  and  O_35
REMARK    4  A    between atoms: N_9  and  C_10
REMARK    5  A    between atoms: C_18  and  C_25
REMARK    6  A    between atoms: C_22  and  C_31
REMARK                            x       y       z     vdW  Elec       q    Type
REMARK                         _______ _______ _______ _____ _____    ______ ____
ROOT
ATOM      1  C   UNL     1      17.942  33.120  13.582  0.00  0.00    +0.046 C 
ATOM      2  C   UNL     1      17.055  33.171  12.492  0.00  0.00    +0.062 C 
ATOM      3  C   UNL     1      15.727  33.580  12.662  0.00  0.00    +0.060 C 
ATOM      4  C   UNL     1      15.277  34.004  13.911  0.00  0.00    +0.121 C 
ATOM      5  C   UNL     1      16.158  33.993  14.992  0.00  0.00    +0.047 C 
ATOM      6  C   UNL     1      17.480  33.551  14.829  0.00  0.00    +0.027 C 
ENDROOT
BRANCH   2   7
ATOM      7  C   UNL     1      17.448  32.665  11.162  0.00  0.00    +0.251 C 
ATOM      8  O   UNL     1      18.615  32.799  10.819  0.00  0.00    -0.270 OA
ATOM      9  N   UNL     1      16.414  32.122  10.444  0.00  0.00    -0.266 N 
ATOM     10  H   UNL     1      15.511  31.982  10.881  0.00  0.00    +0.157 HD
BRANCH   9  11
ATOM     11  C   UNL     1      16.430  31.682   9.120  0.00  0.00    +0.125 C 
ATOM     12  N   UNL     1      15.229  31.231   8.699  0.00  0.00    -0.239 NA
ATOM     13  C   UNL     1      15.139  30.812   7.411  0.00  0.00    +0.132 C 
ATOM     14  C   UNL     1      16.197  30.828   6.518  0.00  0.00    +0.059 C 
ATOM     15  C   UNL     1      17.423  31.295   6.970  0.00  0.00    +0.025 C 
ATOM     16  C   UNL     1      17.544  31.732   8.291  0.00  0.00    +0.045 C 
ATOM     17 CL   UNL     1      16.003  30.291   4.902  0.00  0.00    -0.082 Cl
ENDBRANCH   9  11
ENDBRANCH   2   7
BRANCH   1  20
ATOM     18  C   UNL     1      20.457  33.365  13.570  0.00  0.00    +0.248 C 
ATOM     19  O   UNL     1      21.468  33.018  12.965  0.00  0.00    -0.270 OA
ATOM     20  N   UNL     1      19.273  32.690  13.397  0.00  0.00    -0.281 N 
ATOM     21  H   UNL     1      19.421  31.746  13.048  0.00  0.00    +0.155 HD
BRANCH  18  25
ATOM     22  C   UNL     1      20.522  36.313  16.687  0.00  0.00    +0.061 C 
ATOM     23  C   UNL     1      20.736  34.956  16.977  0.00  0.00    +0.016 C 
ATOM     24  C   UNL     1      20.762  34.011  15.947  0.00  0.00    +0.014 C 
ATOM     25  C   UNL     1      20.593  34.411  14.617  0.00  0.00    +0.037 C 
ATOM     26  C   UNL     1      20.392  35.765  14.321  0.00  0.00    +0.014 C 
ATOM     27  C   UNL     1      20.374  36.711  15.349  0.00  0.00    +0.016 C 
BRANCH  22  31
ATOM     28  C   UNL     1      19.111  38.649  19.366  0.00  0.00    +0.276 C 
ATOM     29  N   UNL     1      19.254  37.588  18.352  0.00  0.00    -0.229 N 
ATOM     30  C   UNL     1      18.017  36.839  18.011  0.00  0.00    +0.276 C 
ATOM     31  C   UNL     1      20.425  37.304  17.776  0.00  0.00    +0.270 C 
ATOM     32  N   UNL     1      21.557  37.893  18.116  0.00  0.00    -0.288 N 
ATOM     33  H   UNL     1      22.414  37.647  17.632  0.00  0.00    +0.301 HD
ATOM     34  H   UNL     1      21.619  38.577  18.853  0.00  0.00    +0.301 HD
ENDBRANCH  22  31
ENDBRANCH  18  25
ENDBRANCH   1  20
BRANCH   4  35
ATOM     35  O   UNL     1      13.969  34.394  13.943  0.00  0.00    -0.495 OA
ATOM     36  C   UNL     1      13.314  34.385  15.206  0.00  0.00    +0.277 C 
ENDBRANCH   4  35
TORSDOF 6
