REMARK  Name = 
REMARK  7 active torsions:
REMARK  status: ('A' for Active; 'I' for Inactive)
REMARK    1  A    between atoms: C_1  and  C_2
REMARK    2  A    between atoms: C_4  and  C_25
REMARK    3  A    between atoms: C_6  and  C_24
REMARK    4  A    between atoms: C_7  and  N_8
REMARK    5  A    between atoms: N_15  and  C_16
REMARK    6  A    between atoms: C_19  and  C_22
REMARK    7  A    between atoms: C_26  and  C_27
REMARK                            x       y       z     vdW  Elec       q    Type
REMARK                         _______ _______ _______ _____ _____    ______ ____
ROOT
ATOM      1  N   UNL     1       2.197  -1.933   0.557  0.00  0.00    -0.299 N 
ATOM      2  C   UNL     1       2.633  -3.220   0.247  0.00  0.00    +0.128 A 
ATOM      3  N   UNL     1       3.427  -3.801   1.161  0.00  0.00    -0.199 NA
ATOM      4  C   UNL     1       3.866  -5.044   0.926  0.00  0.00    +0.221 A 
ATOM      5  N   UNL     1       3.587  -5.723  -0.196  0.00  0.00    -0.223 NA
ATOM      6  C   UNL     1       2.801  -5.110  -1.099  0.00  0.00    +0.118 A 
ATOM      7  C   UNL     1       2.286  -3.852  -0.924  0.00  0.00    +0.063 A 
ATOM      8  N   UNL     1       4.659  -5.722   1.849  0.00  0.00    -0.284 N 
ATOM      9  H   UNL     1       2.599  -1.626   1.436  0.00  0.00    +0.154 HD
ATOM     10  H   UNL     1       4.941  -6.606   1.452  0.00  0.00    +0.155 HD
ENDROOT
BRANCH   1  17
ATOM     11  C   UNL     1       2.482   0.665  -0.604  0.00  0.00    +0.046 C 
ATOM     12  C   UNL     1       1.132   0.065  -0.309  0.00  0.00    -0.028 A 
ATOM     13  C   UNL     1      -0.022   0.835  -0.532  0.00  0.00    +0.013 A 
ATOM     14  C   UNL     1      -1.289   0.328  -0.239  0.00  0.00    -0.024 A 
ATOM     15  C   UNL     1      -1.397  -0.979   0.245  0.00  0.00    +0.013 A 
ATOM     16  C   UNL     1      -0.258  -1.764   0.500  0.00  0.00    -0.028 A 
ATOM     17  C   UNL     1       1.021  -1.250   0.197  0.00  0.00    +0.038 A 
ATOM     18  C   UNL     1      -0.462  -3.126   1.109  0.00  0.00    +0.046 C 
BRANCH  14  19
ATOM     19  C   UNL     1      -2.518   1.114  -0.396  0.00  0.00    +0.019 C 
ATOM     20  C   UNL     1      -2.617   2.402  -0.036  0.00  0.00    +0.089 C 
BRANCH  20  21
ATOM     21  C   UNL     1      -3.967   3.100  -0.049  0.00  0.00    +0.091 C 
ATOM     22  N   UNL     1      -5.087   3.680  -0.060  0.00  0.00    -0.191 NA
ENDBRANCH  20  21
ENDBRANCH  14  19
ENDBRANCH   1  17
BRANCH   8  23
ATOM     23  C   UNL     1       5.040  -5.457   3.168  0.00  0.00    +0.034 A 
ATOM     24  C   UNL     1       4.534  -4.393   3.925  0.00  0.00    +0.024 A 
ATOM     25  C   UNL     1       4.964  -4.161   5.238  0.00  0.00    +0.020 A 
ATOM     26  C   UNL     1       5.924  -4.990   5.818  0.00  0.00    +0.052 A 
ATOM     27  C   UNL     1       6.450  -6.050   5.078  0.00  0.00    +0.020 A 
ATOM     28  C   UNL     1       6.012  -6.275   3.767  0.00  0.00    +0.024 A 
BRANCH  26  29
ATOM     29  C   UNL     1       6.366  -4.754   7.161  0.00  0.00    +0.099 C 
ATOM     30  N   UNL     1       6.722  -4.562   8.249  0.00  0.00    -0.191 NA
ENDBRANCH  26  29
ENDBRANCH   8  23
TORSDOF 5
