REMARK  Name = =
REMARK  1 active torsions:
REMARK  status: ('A' for Active; 'I' for Inactive)
REMARK    1  A    between atoms: N_3  and  C_7
REMARK                            x       y       z     vdW  Elec       q    Type
REMARK                         _______ _______ _______ _____ _____    ______ ____
ROOT
ATOM      1  C   UNL     1      15.218  31.555   7.179  0.00  0.00    +0.122 C 
ATOM      2  N   UNL     1      15.187  31.272   8.498  0.00  0.00    -0.232 NA
ATOM      3  C   UNL     1      15.495  32.240   9.386  0.00  0.00    +0.073 C 
ATOM      4  C   UNL     1      15.448  31.966  10.748  0.00  0.00    +0.028 C 
ATOM      5  C   UNL     1      15.756  32.937  11.707  0.00  0.00    +0.002 C 
ATOM      6  C   UNL     1      16.125  34.215  11.304  0.00  0.00    +0.001 C 
ATOM      7  C   UNL     1      16.183  34.518   9.947  0.00  0.00    +0.010 C 
ATOM      8  C   UNL     1      15.870  33.539   8.988  0.00  0.00    +0.001 C 
ATOM      9  C   UNL     1      15.911  33.811   7.620  0.00  0.00    +0.013 C 
ATOM     10  C   UNL     1      15.583  32.811   6.710  0.00  0.00    +0.044 C 
ENDROOT
BRANCH   1  13
ATOM     11  C   UNL     1      14.829  28.395   7.543  0.00  0.00    +0.148 C 
ATOM     12  C   UNL     1      14.012  29.482   6.816  0.00  0.00    +0.157 C 
ATOM     13  N   UNL     1      14.886  30.540   6.280  0.00  0.00    -0.305 N 
ATOM     14  C   UNL     1      15.979  30.082   5.410  0.00  0.00    +0.157 C 
ATOM     15  C   UNL     1      16.830  29.019   6.140  0.00  0.00    +0.148 C 
ATOM     16  N   UNL     1      15.950  27.897   6.647  0.00  0.00    +0.229 N 
ATOM     17  H   UNL     1      16.522  27.225   7.173  0.00  0.00    +0.201 HD
ATOM     18  H   UNL     1      15.544  27.391   5.851  0.00  0.00    +0.201 HD
ENDBRANCH   1  13
TORSDOF 1
