REMARK  Name = =
REMARK  0 active torsions:
REMARK  status: ('A' for Active; 'I' for Inactive)
REMARK                            x       y       z     vdW  Elec       q    Type
REMARK                         _______ _______ _______ _____ _____    ______ ____
ROOT
ATOM      1  C   UNL     1      17.610  31.725   7.095  0.00  0.00    +0.001 C 
ATOM      2  C   UNL     1      16.635  32.555   7.631  0.00  0.00    +0.002 C 
ATOM      3  C   UNL     1      15.334  32.074   7.809  0.00  0.00    +0.028 C 
ATOM      4  C   UNL     1      14.974  30.778   7.460  0.00  0.00    +0.076 C 
ATOM      5  C   UNL     1      15.953  29.938   6.912  0.00  0.00    +0.040 C 
ATOM      6  C   UNL     1      17.275  30.420   6.738  0.00  0.00    +0.013 C 
ATOM      7  C   UNL     1      15.515  28.648   6.581  0.00  0.00    +0.127 C 
ATOM      8  N   UNL     1      14.264  28.222   6.798  0.00  0.00    -0.221 NA
ATOM      9  C   UNL     1      13.423  29.118   7.328  0.00  0.00    +0.223 C 
ATOM     10  N   UNL     1      13.714  30.379   7.664  0.00  0.00    -0.235 NA
ATOM     11  N   UNL     1      16.365  27.694   6.041  0.00  0.00    -0.343 N 
ATOM     12  H   UNL     1      16.982  27.996   5.302  0.00  0.00    +0.144 HD
ATOM     13  H   UNL     1      15.887  26.813   5.890  0.00  0.00    +0.144 HD
ENDROOT
TORSDOF 0
