REMARK  Name = =
REMARK  4 active torsions:
REMARK  status: ('A' for Active; 'I' for Inactive)
REMARK    1  A    between atoms: C_1  and  O_23
REMARK    2  A    between atoms: C_2  and  O_21
REMARK    3  A    between atoms: N_11  and  C_13
REMARK    4  A    between atoms: O_23  and  C_31
REMARK                            x       y       z     vdW  Elec       q    Type
REMARK                         _______ _______ _______ _____ _____    ______ ____
ROOT
ATOM      1  C   UNL     1      18.660  35.524  15.289  0.00  0.00    +0.175 C 
ATOM      2  C   UNL     1      17.733  35.982  16.226  0.00  0.00    +0.164 C 
ATOM      3  C   UNL     1      16.393  35.633  16.050  0.00  0.00    +0.078 C 
ATOM      4  C   UNL     1      15.965  34.866  14.968  0.00  0.00    +0.080 C 
ATOM      5  C   UNL     1      16.908  34.420  14.028  0.00  0.00    +0.044 C 
ATOM      6  C   UNL     1      18.268  34.767  14.190  0.00  0.00    +0.063 C 
ATOM      7  C   UNL     1      16.388  33.666  12.960  0.00  0.00    +0.134 C 
ATOM      8  N   UNL     1      15.075  33.402  12.844  0.00  0.00    -0.220 NA
ATOM      9  C   UNL     1      14.277  33.887  13.796  0.00  0.00    +0.223 C 
ATOM     10  N   UNL     1      14.663  34.599  14.862  0.00  0.00    -0.235 NA
ATOM     11  N   UNL     1      17.259  33.145  11.981  0.00  0.00    -0.297 N 
ATOM     12  H   UNL     1      18.013  32.601  12.376  0.00  0.00    +0.154 HD
ENDROOT
BRANCH  11  13
ATOM     13  C   UNL     1      16.981  32.915  10.619  0.00  0.00    +0.070 C 
ATOM     14  C   UNL     1      16.214  33.798   9.838  0.00  0.00    +0.163 C 
ATOM     15  C   UNL     1      15.943  33.521   8.497  0.00  0.00    +0.078 C 
ATOM     16  C   UNL     1      16.434  32.357   7.909  0.00  0.00    +0.023 C 
ATOM     17  C   UNL     1      17.201  31.472   8.665  0.00  0.00    +0.003 C 
ATOM     18  C   UNL     1      17.473  31.751  10.008  0.00  0.00    +0.026 C 
ATOM     19 CL   UNL     1      15.022  34.621   7.541  0.00  0.00    -0.081 Cl
ATOM     20  F   UNL     1      15.787  34.959  10.365  0.00  0.00    -0.202 F 
ENDBRANCH  11  13
BRANCH   2  21
ATOM     21  O   UNL     1      18.231  36.755  17.242  0.00  0.00    -0.491 OA
ATOM     22  C   UNL     1      18.209  36.190  18.549  0.00  0.00    +0.277 C 
ENDBRANCH   2  21
BRANCH   1  23
ATOM     23  O   UNL     1      20.003  35.898  15.395  0.00  0.00    -0.408 OA
BRANCH  23  31
ATOM     24  C   UNL     1      22.470  35.603  13.174  0.00  0.00    +0.033 C 
ATOM     25  C   UNL     1      21.420  34.540  13.507  0.00  0.00    +0.122 C 
ATOM     26  C   UNL     1      21.487  33.301  12.580  0.00  0.00    +0.153 C 
ATOM     27  N   UNL     1      22.522  32.265  12.996  0.00  0.00    +0.235 N 
ATOM     28  C   UNL     1      22.403  31.915  14.472  0.00  0.00    +0.150 C 
ATOM     29  C   UNL     1      22.448  33.168  15.350  0.00  0.00    +0.162 C 
ATOM     30  N   UNL     1      21.471  34.175  14.934  0.00  0.00    -0.254 N 
ATOM     31  C   UNL     1      20.800  34.894  15.922  0.00  0.00    +0.409 C 
ATOM     32  O   UNL     1      20.900  34.623  17.114  0.00  0.00    -0.226 OA
ATOM     33  C   UNL     1      23.926  32.553  12.554  0.00  0.00    +0.190 C 
ATOM     34  H   UNL     1      22.260  31.409  12.490  0.00  0.00    +0.203 HD
ENDBRANCH  23  31
ENDBRANCH   1  23
TORSDOF 4
