REMARK  Name = =
REMARK  0 active torsions:
REMARK  status: ('A' for Active; 'I' for Inactive)
REMARK                            x       y       z     vdW  Elec       q    Type
REMARK                         _______ _______ _______ _____ _____    ______ ____
ROOT
ATOM      1  C   UNL     1      18.903  31.805  11.996  0.00  0.00    +0.152 C 
ATOM      2  N   UNL     1      18.416  32.353  13.237  0.00  0.00    -0.315 N 
ATOM      3  C   UNL     1      17.210  32.986  13.432  0.00  0.00    +0.070 A 
ATOM      4  C   UNL     1      17.217  33.322  14.783  0.00  0.00    +0.100 A 
ATOM      5  C   UNL     1      16.099  33.999  15.332  0.00  0.00    +0.028 C 
ATOM      6  C   UNL     1      15.002  34.324  14.510  0.00  0.00    +0.073 C 
ATOM      7  C   UNL     1      15.047  33.966  13.169  0.00  0.00    +0.030 C 
ATOM      8  C   UNL     1      16.136  33.296  12.591  0.00  0.00    +0.030 C 
ATOM      9  N   UNL     1      13.924  34.967  14.996  0.00  0.00    -0.255 NA
ATOM     10  C   UNL     1      13.922  35.297  16.310  0.00  0.00    +0.111 C 
ATOM     11  C   UNL     1      14.955  35.017  17.187  0.00  0.00    +0.020 C 
ATOM     12  C   UNL     1      16.068  34.355  16.690  0.00  0.00    +0.013 C 
ATOM     13  N   UNL     1      18.387  32.909  15.382  0.00  0.00    -0.214 NA
ATOM     14  C   UNL     1      19.086  32.335  14.437  0.00  0.00    +0.194 A 
ATOM     15  N   UNL     1      20.299  31.792  14.586  0.00  0.00    -0.329 N 
ATOM     16  H   UNL     1      20.725  31.820  15.506  0.00  0.00    +0.145 HD
ATOM     17  H   UNL     1      20.843  31.352  13.857  0.00  0.00    +0.145 HD
ENDROOT
TORSDOF 0
