MODEL 1
REMARK minimizedAffinity -11.036787
REMARK minimizedRMSD -1
REMARK  Name = 
REMARK  6 active torsions:
REMARK  status: ('A' for Active; 'I' for Inactive)
REMARK    1  A    between atoms: C_1  and  O_2
REMARK    2  A    between atoms: O_2  and  C_3
REMARK    3  A    between atoms: C_4  and  O_23
REMARK    4  A    between atoms: N_13  and  C_14
REMARK    5  A    between atoms: O_23  and  C_24
REMARK    6  A    between atoms: C_30  and  C_32
REMARK                            x       y       z     vdW  Elec       q    Type
REMARK                         _______ _______ _______ _____ _____    ______ ____
ROOT
ATOM      1  C   UNL     1      19.981  34.787  16.547  0.00  0.00    +0.164 A 
ATOM      2  C   UNL     1      20.533  34.480  15.297  0.00  0.00    +0.163 A 
ATOM      3  C   UNL     1      19.733  34.124  14.223  0.00  0.00    +0.062 A 
ATOM      4  C   UNL     1      18.331  34.069  14.387  0.00  0.00    +0.044 A 
ATOM      5  C   UNL     1      17.766  34.382  15.639  0.00  0.00    +0.080 A 
ATOM      6  C   UNL     1      18.602  34.723  16.703  0.00  0.00    +0.078 A 
ATOM      7  N   UNL     1      16.448  34.374  15.846  0.00  0.00    -0.235 NA
ATOM      8  C   UNL     1      15.672  34.059  14.803  0.00  0.00    +0.223 A 
ATOM      9  N   UNL     1      16.089  33.725  13.579  0.00  0.00    -0.220 NA
ATOM     10  C   UNL     1      17.416  33.722  13.372  0.00  0.00    +0.134 A 
ATOM     11  N   UNL     1      17.892  33.336  12.096  0.00  0.00    -0.297 N 
ATOM     12  H   UNL     1      18.686  32.713  12.149  0.00  0.00    +0.154 HD
ENDROOT
BRANCH  11  13
ATOM     13  C   UNL     1      17.161  33.277  10.893  0.00  0.00    +0.070 A 
ATOM     14  C   UNL     1      17.225  32.181  10.012  0.00  0.00    +0.164 A 
ATOM     15  C   UNL     1      16.545  32.186   8.789  0.00  0.00    +0.096 A 
ATOM     16  C   UNL     1      15.792  33.307   8.428  0.00  0.00    +0.062 A 
ATOM     17  C   UNL     1      15.712  34.401   9.293  0.00  0.00    +0.023 A 
ATOM     18  C   UNL     1      16.388  34.384  10.516  0.00  0.00    +0.028 A 
ATOM     19 CL   UNL     1      14.933  33.410   6.932  0.00  0.00    -0.082 Cl
ATOM     20 CL   UNL     1      16.653  30.791   7.769  0.00  0.00    -0.079 Cl
ATOM     21  F   UNL     1      17.908  31.082  10.375  0.00  0.00    -0.202 F 
ENDBRANCH  11  13
BRANCH   1  23
ATOM     22  C   UNL     1      22.284  35.601  18.665  0.00  0.00    +0.277 C 
ATOM     23  O   UNL     1      20.952  35.149  17.455  0.00  0.00    -0.491 OA
ENDBRANCH   1  23
BRANCH   2  24
ATOM     24  O   UNL     1      21.894  34.544  15.108  0.00  0.00    -0.485 OA
BRANCH  24  25
ATOM     25  C   UNL     1      22.459  33.260  15.484  0.00  0.00    +0.177 C 
ATOM     26  C   UNL     1      24.249  33.642  16.148  0.00  0.00    +0.063 C 
ATOM     27  C   UNL     1      25.768  33.292  14.988  0.00  0.00    +0.111 C 
ATOM     28  N   UNL     1      25.530  32.211  13.513  0.00  0.00    -0.298 N 
ATOM     29  C   UNL     1      23.864  31.814  12.810  0.00  0.00    +0.111 C 
ATOM     30  C   UNL     1      22.290  32.127  13.909  0.00  0.00    +0.063 C 
ATOM     31  C   UNL     1      26.710  31.774  12.942  0.00  0.00    +0.239 C 
ATOM     32  O   UNL     1      27.818  32.129  13.336  0.00  0.00    -0.271 OA
BRANCH  31  33
ATOM     33  C   UNL     1      26.616  30.848  11.797  0.00  0.00    +0.060 C 
ATOM     34  C   UNL     1      27.535  29.898  11.577  0.00  0.00    +0.013 C 
ENDBRANCH  31  33
ENDBRANCH  24  25
ENDBRANCH   2  24
TORSDOF 5
ENDMDL
MODEL 2
REMARK minimizedAffinity -10.5864801
REMARK minimizedRMSD -1
REMARK  Name = 
REMARK  6 active torsions:
REMARK  status: ('A' for Active; 'I' for Inactive)
REMARK    1  A    between atoms: C_1  and  O_2
REMARK    2  A    between atoms: O_2  and  C_3
REMARK    3  A    between atoms: C_4  and  O_23
REMARK    4  A    between atoms: N_13  and  C_14
REMARK    5  A    between atoms: O_23  and  C_24
REMARK    6  A    between atoms: C_30  and  C_32
REMARK                            x       y       z     vdW  Elec       q    Type
REMARK                         _______ _______ _______ _____ _____    ______ ____
ROOT
ATOM      1  C   UNL     1      19.284  35.331  16.553  0.00  0.00    +0.164 A 
ATOM      2  C   UNL     1      19.940  34.889  15.397  0.00  0.00    +0.163 A 
ATOM      3  C   UNL     1      19.232  34.451  14.290  0.00  0.00    +0.062 A 
ATOM      4  C   UNL     1      17.820  34.449  14.321  0.00  0.00    +0.044 A 
ATOM      5  C   UNL     1      17.152  34.898  15.477  0.00  0.00    +0.080 A 
ATOM      6  C   UNL     1      17.895  35.319  16.580  0.00  0.00    +0.078 A 
ATOM      7  N   UNL     1      15.820  34.945  15.555  0.00  0.00    -0.235 NA
ATOM      8  C   UNL     1      15.135  34.550  14.476  0.00  0.00    +0.223 A 
ATOM      9  N   UNL     1      15.653  34.087  13.335  0.00  0.00    -0.220 NA
ATOM     10  C   UNL     1      16.994  34.029  13.260  0.00  0.00    +0.134 A 
ATOM     11  N   UNL     1      17.573  33.508  12.079  0.00  0.00    -0.297 N 
ATOM     12  H   UNL     1      18.336  32.872  12.267  0.00  0.00    +0.154 HD
ENDROOT
BRANCH  11  13
ATOM     13  C   UNL     1      16.958  33.350  10.821  0.00  0.00    +0.070 A 
ATOM     14  C   UNL     1      17.154  32.218  10.009  0.00  0.00    +0.164 A 
ATOM     15  C   UNL     1      16.587  32.126   8.733  0.00  0.00    +0.096 A 
ATOM     16  C   UNL     1      15.815  33.186   8.248  0.00  0.00    +0.062 A 
ATOM     17  C   UNL     1      15.604  34.315   9.042  0.00  0.00    +0.023 A 
ATOM     18  C   UNL     1      16.168  34.394  10.319  0.00  0.00    +0.028 A 
ATOM     19 CL   UNL     1      15.090  33.169   6.679  0.00  0.00    -0.082 Cl
ATOM     20 CL   UNL     1      16.855  30.691   7.803  0.00  0.00    -0.079 Cl
ATOM     21  F   UNL     1      17.855  31.176  10.489  0.00  0.00    -0.202 F 
ENDBRANCH  11  13
BRANCH   1  23
ATOM     22  C   UNL     1      21.354  36.307  18.837  0.00  0.00    +0.277 C 
ATOM     23  O   UNL     1      20.178  35.754  17.513  0.00  0.00    -0.491 OA
ENDBRANCH   1  23
BRANCH   2  24
ATOM     24  O   UNL     1      21.315  34.898  15.337  0.00  0.00    -0.485 OA
BRANCH  24  25
ATOM     25  C   UNL     1      21.783  33.547  15.589  0.00  0.00    +0.177 C 
ATOM     26  C   UNL     1      23.117  33.702  16.999  0.00  0.00    +0.063 C 
ATOM     27  C   UNL     1      24.997  33.619  16.517  0.00  0.00    +0.111 C 
ATOM     28  N   UNL     1      25.462  32.954  14.861  0.00  0.00    -0.298 N 
ATOM     29  C   UNL     1      24.258  32.791  13.464  0.00  0.00    +0.111 C 
ATOM     30  C   UNL     1      22.355  32.855  13.860  0.00  0.00    +0.063 C 
ATOM     31  C   UNL     1      26.803  32.646  14.737  0.00  0.00    +0.239 C 
ATOM     32  O   UNL     1      27.626  32.861  15.623  0.00  0.00    -0.271 OA
BRANCH  31  33
ATOM     33  C   UNL     1      27.254  32.043  13.467  0.00  0.00    +0.060 C 
ATOM     34  C   UNL     1      28.128  31.027  13.437  0.00  0.00    +0.013 C 
ENDBRANCH  31  33
ENDBRANCH  24  25
ENDBRANCH   2  24
TORSDOF 5
ENDMDL
MODEL 3
REMARK minimizedAffinity -10.5022106
REMARK minimizedRMSD -1
REMARK  Name = 
REMARK  6 active torsions:
REMARK  status: ('A' for Active; 'I' for Inactive)
REMARK    1  A    between atoms: C_1  and  O_2
REMARK    2  A    between atoms: O_2  and  C_3
REMARK    3  A    between atoms: C_4  and  O_23
REMARK    4  A    between atoms: N_13  and  C_14
REMARK    5  A    between atoms: O_23  and  C_24
REMARK    6  A    between atoms: C_30  and  C_32
REMARK                            x       y       z     vdW  Elec       q    Type
REMARK                         _______ _______ _______ _____ _____    ______ ____
ROOT
ATOM      1  C   UNL     1      19.375  34.234  16.808  0.00  0.00    +0.164 A 
ATOM      2  C   UNL     1      19.909  33.586  15.688  0.00  0.00    +0.163 A 
ATOM      3  C   UNL     1      19.160  33.403  14.537  0.00  0.00    +0.062 A 
ATOM      4  C   UNL     1      17.831  33.878  14.486  0.00  0.00    +0.044 A 
ATOM      5  C   UNL     1      17.287  34.537  15.606  0.00  0.00    +0.080 A 
ATOM      6  C   UNL     1      18.064  34.693  16.755  0.00  0.00    +0.078 A 
ATOM      7  N   UNL     1      16.048  35.032  15.607  0.00  0.00    -0.235 NA
ATOM      8  C   UNL     1      15.333  34.881  14.487  0.00  0.00    +0.223 A 
ATOM      9  N   UNL     1      15.730  34.260  13.373  0.00  0.00    -0.220 NA
ATOM     10  C   UNL     1      16.974  33.752  13.374  0.00  0.00    +0.134 A 
ATOM     11  N   UNL     1      17.411  33.055  12.223  0.00  0.00    -0.297 N 
ATOM     12  H   UNL     1      17.902  32.201  12.448  0.00  0.00    +0.154 HD
ENDROOT
BRANCH  11  13
ATOM     13  C   UNL     1      16.853  33.103  10.930  0.00  0.00    +0.070 A 
ATOM     14  C   UNL     1      17.080  32.108   9.961  0.00  0.00    +0.164 A 
ATOM     15  C   UNL     1      16.571  32.222   8.662  0.00  0.00    +0.096 A 
ATOM     16  C   UNL     1      15.828  33.355   8.315  0.00  0.00    +0.062 A 
ATOM     17  C   UNL     1      15.587  34.349   9.266  0.00  0.00    +0.023 A 
ATOM     18  C   UNL     1      16.092  34.222  10.563  0.00  0.00    +0.028 A 
ATOM     19 CL   UNL     1      15.175  33.591   6.732  0.00  0.00    -0.082 Cl
ATOM     20 CL   UNL     1      16.873  30.946   7.533  0.00  0.00    -0.079 Cl
ATOM     21  F   UNL     1      17.752  30.995  10.303  0.00  0.00    -0.202 F 
ENDBRANCH  11  13
BRANCH   1  23
ATOM     22  C   UNL     1      21.574  34.451  19.169  0.00  0.00    +0.277 C 
ATOM     23  O   UNL     1      20.302  34.341  17.823  0.00  0.00    -0.491 OA
ENDBRANCH   1  23
BRANCH   2  24
ATOM     24  O   UNL     1      21.207  33.130  15.707  0.00  0.00    -0.485 OA
BRANCH  24  25
ATOM     25  C   UNL     1      21.947  33.844  14.682  0.00  0.00    +0.177 C 
ATOM     26  C   UNL     1      22.031  32.639  13.153  0.00  0.00    +0.063 C 
ATOM     27  C   UNL     1      23.682  31.670  12.821  0.00  0.00    +0.111 C 
ATOM     28  N   UNL     1      25.228  32.236  13.650  0.00  0.00    -0.298 N 
ATOM     29  C   UNL     1      25.233  33.366  15.117  0.00  0.00    +0.111 C 
ATOM     30  C   UNL     1      23.622  34.381  15.516  0.00  0.00    +0.063 C 
ATOM     31  C   UNL     1      26.381  31.693  13.117  0.00  0.00    +0.239 C 
ATOM     32  O   UNL     1      26.376  30.854  12.220  0.00  0.00    -0.271 OA
BRANCH  31  33
ATOM     33  C   UNL     1      27.673  32.142  13.673  0.00  0.00    +0.060 C 
ATOM     34  C   UNL     1      28.468  31.321  14.372  0.00  0.00    +0.013 C 
ENDBRANCH  31  33
ENDBRANCH  24  25
ENDBRANCH   2  24
TORSDOF 5
ENDMDL
MODEL 4
REMARK minimizedAffinity -10.3315077
REMARK minimizedRMSD -1
REMARK  Name = 
REMARK  6 active torsions:
REMARK  status: ('A' for Active; 'I' for Inactive)
REMARK    1  A    between atoms: C_1  and  O_2
REMARK    2  A    between atoms: O_2  and  C_3
REMARK    3  A    between atoms: C_4  and  O_23
REMARK    4  A    between atoms: N_13  and  C_14
REMARK    5  A    between atoms: O_23  and  C_24
REMARK    6  A    between atoms: C_30  and  C_32
REMARK                            x       y       z     vdW  Elec       q    Type
REMARK                         _______ _______ _______ _____ _____    ______ ____
ROOT
ATOM      1  C   UNL     1      15.063  34.556  14.644  0.00  0.00    +0.164 A 
ATOM      2  C   UNL     1      16.223  34.090  14.012  0.00  0.00    +0.163 A 
ATOM      3  C   UNL     1      17.482  34.409  14.491  0.00  0.00    +0.062 A 
ATOM      4  C   UNL     1      17.606  35.220  15.641  0.00  0.00    +0.044 A 
ATOM      5  C   UNL     1      16.445  35.688  16.288  0.00  0.00    +0.080 A 
ATOM      6  C   UNL     1      15.192  35.359  15.771  0.00  0.00    +0.078 A 
ATOM      7  N   UNL     1      16.500  36.435  17.392  0.00  0.00    -0.235 NA
ATOM      8  C   UNL     1      17.715  36.720  17.873  0.00  0.00    +0.223 A 
ATOM      9  N   UNL     1      18.883  36.353  17.340  0.00  0.00    -0.220 NA
ATOM     10  C   UNL     1      18.830  35.610  16.221  0.00  0.00    +0.134 A 
ATOM     11  N   UNL     1      20.051  35.238  15.610  0.00  0.00    -0.297 N 
ATOM     12  H   UNL     1      20.032  35.345  14.605  0.00  0.00    +0.154 HD
ENDROOT
BRANCH  11  13
ATOM     13  C   UNL     1      21.335  35.242  16.191  0.00  0.00    +0.070 A 
ATOM     14  C   UNL     1      21.793  34.221  17.043  0.00  0.00    +0.164 A 
ATOM     15  C   UNL     1      23.046  34.292  17.662  0.00  0.00    +0.096 A 
ATOM     16  C   UNL     1      23.859  35.408  17.436  0.00  0.00    +0.062 A 
ATOM     17  C   UNL     1      23.423  36.428  16.588  0.00  0.00    +0.023 A 
ATOM     18  C   UNL     1      22.173  36.344  15.968  0.00  0.00    +0.028 A 
ATOM     19 CL   UNL     1      25.413  35.591  18.170  0.00  0.00    -0.082 Cl
ATOM     20 CL   UNL     1      23.551  32.985  18.678  0.00  0.00    -0.079 Cl
ATOM     21  F   UNL     1      21.037  33.125  17.225  0.00  0.00    -0.202 F 
ENDBRANCH  11  13
BRANCH   1  23
ATOM     22  C   UNL     1      12.411  33.417  13.187  0.00  0.00    +0.277 C 
ATOM     23  O   UNL     1      13.924  34.088  14.025  0.00  0.00    -0.491 OA
ENDBRANCH   1  23
BRANCH   2  24
ATOM     24  O   UNL     1      16.127  33.284  12.901  0.00  0.00    -0.485 OA
BRANCH  24  25
ATOM     25  C   UNL     1      17.007  33.824  11.880  0.00  0.00    +0.177 C 
ATOM     26  C   UNL     1      15.837  34.560  10.508  0.00  0.00    +0.063 C 
ATOM     27  C   UNL     1      15.558  33.542   8.877  0.00  0.00    +0.111 C 
ATOM     28  N   UNL     1      16.724  32.172   8.473  0.00  0.00    -0.298 N 
ATOM     29  C   UNL     1      17.856  31.407   9.723  0.00  0.00    +0.111 C 
ATOM     30  C   UNL     1      18.196  32.364  11.381  0.00  0.00    +0.063 C 
ATOM     31  C   UNL     1      16.635  31.726   7.169  0.00  0.00    +0.239 C 
ATOM     32  O   UNL     1      15.805  32.152   6.368  0.00  0.00    -0.271 OA
BRANCH  31  33
ATOM     33  C   UNL     1      17.579  30.676   6.735  0.00  0.00    +0.060 C 
ATOM     34  C   UNL     1      17.201  29.669   5.937  0.00  0.00    +0.013 C 
ENDBRANCH  31  33
ENDBRANCH  24  25
ENDBRANCH   2  24
TORSDOF 5
ENDMDL
MODEL 5
REMARK minimizedAffinity -10.3160181
REMARK minimizedRMSD -1
REMARK  Name = 
REMARK  6 active torsions:
REMARK  status: ('A' for Active; 'I' for Inactive)
REMARK    1  A    between atoms: C_1  and  O_2
REMARK    2  A    between atoms: O_2  and  C_3
REMARK    3  A    between atoms: C_4  and  O_23
REMARK    4  A    between atoms: N_13  and  C_14
REMARK    5  A    between atoms: O_23  and  C_24
REMARK    6  A    between atoms: C_30  and  C_32
REMARK                            x       y       z     vdW  Elec       q    Type
REMARK                         _______ _______ _______ _____ _____    ______ ____
ROOT
ATOM      1  C   UNL     1      17.750  35.797  16.488  0.00  0.00    +0.164 A 
ATOM      2  C   UNL     1      18.708  35.412  15.543  0.00  0.00    +0.163 A 
ATOM      3  C   UNL     1      18.344  34.772  14.369  0.00  0.00    +0.062 A 
ATOM      4  C   UNL     1      16.981  34.503  14.114  0.00  0.00    +0.044 A 
ATOM      5  C   UNL     1      16.010  34.893  15.057  0.00  0.00    +0.080 A 
ATOM      6  C   UNL     1      16.411  35.523  16.236  0.00  0.00    +0.078 A 
ATOM      7  N   UNL     1      14.706  34.690  14.859  0.00  0.00    -0.235 NA
ATOM      8  C   UNL     1      14.351  34.098  13.713  0.00  0.00    +0.223 A 
ATOM      9  N   UNL     1      15.177  33.667  12.757  0.00  0.00    -0.220 NA
ATOM     10  C   UNL     1      16.491  33.861  12.959  0.00  0.00    +0.134 A 
ATOM     11  N   UNL     1      17.395  33.381  11.982  0.00  0.00    -0.297 N 
ATOM     12  H   UNL     1      18.196  32.917  12.388  0.00  0.00    +0.154 HD
ENDROOT
BRANCH  11  13
ATOM     13  C   UNL     1      17.105  33.024  10.650  0.00  0.00    +0.070 A 
ATOM     14  C   UNL     1      16.334  33.830   9.792  0.00  0.00    +0.164 A 
ATOM     15  C   UNL     1      16.003  33.412   8.498  0.00  0.00    +0.096 A 
ATOM     16  C   UNL     1      16.438  32.161   8.050  0.00  0.00    +0.062 A 
ATOM     17  C   UNL     1      17.209  31.350   8.886  0.00  0.00    +0.023 A 
ATOM     18  C   UNL     1      17.542  31.780  10.173  0.00  0.00    +0.028 A 
ATOM     19 CL   UNL     1      16.063  31.554   6.475  0.00  0.00    -0.082 Cl
ATOM     20 CL   UNL     1      15.071  34.469   7.493  0.00  0.00    -0.079 Cl
ATOM     21  F   UNL     1      15.954  35.052  10.201  0.00  0.00    -0.202 F 
ENDBRANCH  11  13
BRANCH   1  23
ATOM     22  C   UNL     1      19.124  37.287  19.008  0.00  0.00    +0.277 C 
ATOM     23  O   UNL     1      18.326  36.449  17.558  0.00  0.00    -0.491 OA
ENDBRANCH   1  23
BRANCH   2  24
ATOM     24  O   UNL     1      20.040  35.679  15.760  0.00  0.00    -0.485 OA
BRANCH  24  25
ATOM     25  C   UNL     1      20.790  34.467  15.486  0.00  0.00    +0.177 C 
ATOM     26  C   UNL     1      20.507  33.308  17.025  0.00  0.00    +0.063 C 
ATOM     27  C   UNL     1      21.917  33.162  18.353  0.00  0.00    +0.111 C 
ATOM     28  N   UNL     1      23.615  33.736  17.916  0.00  0.00    -0.298 N 
ATOM     29  C   UNL     1      23.965  34.851  16.480  0.00  0.00    +0.111 C 
ATOM     30  C   UNL     1      22.609  35.048  15.099  0.00  0.00    +0.063 C 
ATOM     31  C   UNL     1      24.593  33.308  18.791  0.00  0.00    +0.239 C 
ATOM     32  O   UNL     1      24.350  32.665  19.809  0.00  0.00    -0.271 OA
BRANCH  31  33
ATOM     33  C   UNL     1      25.994  33.662  18.482  0.00  0.00    +0.060 C 
ATOM     34  C   UNL     1      26.907  32.733  18.169  0.00  0.00    +0.013 C 
ENDBRANCH  31  33
ENDBRANCH  24  25
ENDBRANCH   2  24
TORSDOF 5
ENDMDL
