REMARK  Name = =
REMARK  5 active torsions:
REMARK  status: ('A' for Active; 'I' for Inactive)
REMARK    1  A    between atoms: C_1  and  O_23
REMARK    2  A    between atoms: C_2  and  O_24
REMARK    3  A    between atoms: N_11  and  C_13
REMARK    4  A    between atoms: O_24  and  C_25
REMARK    5  A    between atoms: C_31  and  C_33
REMARK                            x       y       z     vdW  Elec       q    Type
REMARK                         _______ _______ _______ _____ _____    ______ ____
ROOT
ATOM      1  C   UNL     1      19.375  34.234  16.808  0.00  0.00    +0.164 C 
ATOM      2  C   UNL     1      19.909  33.586  15.688  0.00  0.00    +0.163 C 
ATOM      3  C   UNL     1      19.160  33.403  14.537  0.00  0.00    +0.062 C 
ATOM      4  C   UNL     1      17.831  33.878  14.486  0.00  0.00    +0.044 C 
ATOM      5  C   UNL     1      17.287  34.537  15.606  0.00  0.00    +0.080 C 
ATOM      6  C   UNL     1      18.064  34.693  16.755  0.00  0.00    +0.078 C 
ATOM      7  N   UNL     1      16.048  35.032  15.607  0.00  0.00    -0.235 NA
ATOM      8  C   UNL     1      15.333  34.881  14.487  0.00  0.00    +0.223 C 
ATOM      9  N   UNL     1      15.730  34.260  13.373  0.00  0.00    -0.220 NA
ATOM     10  C   UNL     1      16.974  33.752  13.374  0.00  0.00    +0.134 C 
ATOM     11  N   UNL     1      17.411  33.055  12.223  0.00  0.00    -0.297 N 
ATOM     12  H   UNL     1      17.902  32.201  12.448  0.00  0.00    +0.154 HD
ENDROOT
BRANCH  11  13
ATOM     13  C   UNL     1      16.853  33.103  10.930  0.00  0.00    +0.070 C 
ATOM     14  C   UNL     1      17.080  32.108   9.961  0.00  0.00    +0.164 C 
ATOM     15  C   UNL     1      16.571  32.222   8.662  0.00  0.00    +0.096 C 
ATOM     16  C   UNL     1      15.828  33.355   8.315  0.00  0.00    +0.062 C 
ATOM     17  C   UNL     1      15.587  34.349   9.266  0.00  0.00    +0.023 C 
ATOM     18  C   UNL     1      16.092  34.222  10.563  0.00  0.00    +0.028 C 
ATOM     19 CL   UNL     1      15.175  33.591   6.732  0.00  0.00    -0.082 Cl
ATOM     20 CL   UNL     1      16.873  30.946   7.533  0.00  0.00    -0.079 Cl
ATOM     21  F   UNL     1      17.752  30.995  10.303  0.00  0.00    -0.202 F 
ENDBRANCH  11  13
BRANCH   1  23
ATOM     22  C   UNL     1      21.574  34.451  19.169  0.00  0.00    +0.277 C 
ATOM     23  O   UNL     1      20.302  34.341  17.823  0.00  0.00    -0.491 OA
ENDBRANCH   1  23
BRANCH   2  24
ATOM     24  O   UNL     1      21.207  33.130  15.707  0.00  0.00    -0.485 OA
BRANCH  24  25
ATOM     25  C   UNL     1      21.947  33.844  14.682  0.00  0.00    +0.177 C 
ATOM     26  C   UNL     1      22.031  32.639  13.153  0.00  0.00    +0.063 C 
ATOM     27  C   UNL     1      23.682  31.670  12.821  0.00  0.00    +0.111 C 
ATOM     28  N   UNL     1      25.228  32.236  13.650  0.00  0.00    -0.298 N 
ATOM     29  C   UNL     1      25.233  33.366  15.117  0.00  0.00    +0.111 C 
ATOM     30  C   UNL     1      23.622  34.381  15.516  0.00  0.00    +0.063 C 
ATOM     31  C   UNL     1      26.381  31.693  13.117  0.00  0.00    +0.239 C 
ATOM     32  O   UNL     1      26.376  30.854  12.220  0.00  0.00    -0.271 OA
BRANCH  31  33
ATOM     33  C   UNL     1      27.673  32.142  13.673  0.00  0.00    +0.060 C 
ATOM     34  C   UNL     1      28.468  31.321  14.372  0.00  0.00    +0.013 C 
ENDBRANCH  31  33
ENDBRANCH  24  25
ENDBRANCH   2  24
TORSDOF 5
