REMARK  Name = =
REMARK  8 active torsions:
REMARK  status: ('A' for Active; 'I' for Inactive)
REMARK    1  A    between atoms: N_1  and  C_5
REMARK    2  A    between atoms: N_1  and  C_13
REMARK    3  A    between atoms: N_1  and  C_21
REMARK    4  A    between atoms: C_13  and  C_14
REMARK    5  A    between atoms: C_14  and  C_15
REMARK    6  A    between atoms: C_15  and  C_16
REMARK    7  A    between atoms: C_16  and  N_17
REMARK    8  A    between atoms: C_21  and  C_22
REMARK                            x       y       z     vdW  Elec       q    Type
REMARK                         _______ _______ _______ _____ _____    ______ ____
ROOT
ATOM      1  N   UNL     1      16.025  32.155   9.749  0.00  0.00    +0.247 N 
ATOM      2  H   UNL     1      16.434  31.209   9.851  0.00  0.00    +0.204 HD
ENDROOT
BRANCH   1   5
ATOM      3  C   UNL     1      17.700  31.608   7.109  0.00  0.00    +0.011 C 
ATOM      4  C   UNL     1      16.611  32.656   7.320  0.00  0.00    +0.061 C 
ATOM      5  C   UNL     1      15.523  32.152   8.289  0.00  0.00    +0.115 C 
ATOM      6  C   UNL     1      15.016  30.778   7.833  0.00  0.00    +0.092 C 
ATOM      7  C   UNL     1      15.790  29.947   7.014  0.00  0.00    -0.021 C 
ATOM      8  C   UNL     1      17.120  30.363   6.444  0.00  0.00    +0.037 C 
ATOM      9  C   UNL     1      15.250  28.711   6.640  0.00  0.00    +0.007 C 
ATOM     10  C   UNL     1      13.986  28.340   7.079  0.00  0.00    +0.020 C 
ATOM     11  C   UNL     1      13.298  29.214   7.893  0.00  0.00    +0.111 C 
ATOM     12  N   UNL     1      13.794  30.406   8.304  0.00  0.00    -0.254 NA
ENDBRANCH   1   5
BRANCH   1  13
ATOM     13  C   UNL     1      17.164  33.046  10.157  0.00  0.00    +0.132 C 
BRANCH  13  14
ATOM     14  C   UNL     1      18.441  32.316  10.607  0.00  0.00    +0.056 C 
BRANCH  14  15
ATOM     15  C   UNL     1      19.377  33.064  11.572  0.00  0.00    +0.056 C 
BRANCH  15  16
ATOM     16  C   UNL     1      19.941  32.234  12.731  0.00  0.00    +0.127 C 
BRANCH  16  17
ATOM     17  N   UNL     1      21.422  32.180  12.679  0.00  0.00    +0.219 N 
ATOM     18  H   UNL     1      21.848  33.119  12.731  0.00  0.00    +0.199 HD
ATOM     19  H   UNL     1      21.796  31.667  13.493  0.00  0.00    +0.199 HD
ATOM     20  H   UNL     1      21.805  31.715  11.846  0.00  0.00    +0.199 HD
ENDBRANCH  16  17
ENDBRANCH  15  16
ENDBRANCH  14  15
ENDBRANCH  13  14
ENDBRANCH   1  13
BRANCH   1  21
ATOM     21  C   UNL     1      14.897  32.064  10.779  0.00  0.00    +0.207 C 
BRANCH  21  22
ATOM     22  C   UNL     1      15.333  32.745  12.024  0.00  0.00    +0.154 A 
ATOM     23  N   UNL     1      14.974  33.974  12.336  0.00  0.00    -0.227 NA
ATOM     24  C   UNL     1      15.606  34.241  13.529  0.00  0.00    +0.089 A 
ATOM     25  C   UNL     1      15.545  35.381  14.341  0.00  0.00    +0.030 C 
ATOM     26  C   UNL     1      16.309  35.407  15.514  0.00  0.00    +0.002 C 
ATOM     27  C   UNL     1      17.119  34.325  15.865  0.00  0.00    +0.002 C 
ATOM     28  C   UNL     1      17.190  33.178  15.066  0.00  0.00    +0.028 C 
ATOM     29  C   UNL     1      16.410  33.171  13.909  0.00  0.00    +0.066 A 
ATOM     30  N   UNL     1      16.229  32.232  12.926  0.00  0.00    -0.338 N 
ATOM     31  H   UNL     1      16.701  31.338  12.877  0.00  0.00    +0.167 HD
ENDBRANCH  21  22
ENDBRANCH   1  21
TORSDOF 8
