MODEL 1
REMARK minimizedAffinity -9.04386044
REMARK minimizedRMSD -1
REMARK  Name = 
REMARK  7 active torsions:
REMARK  status: ('A' for Active; 'I' for Inactive)
REMARK    1  A    between atoms: C_1  and  O_2
REMARK    2  A    between atoms: O_2  and  C_3
REMARK    3  A    between atoms: C_4  and  N_22
REMARK    4  A    between atoms: N_13  and  C_14
REMARK    5  A    between atoms: C_23  and  C_25
REMARK    6  A    between atoms: C_26  and  C_27
REMARK    7  A    between atoms: C_27  and  N_28
REMARK                            x       y       z     vdW  Elec       q    Type
REMARK                         _______ _______ _______ _____ _____    ______ ____
ROOT
ATOM      1  C   UNL     1      20.432  33.141  16.900  0.00  0.00    +0.143 A 
ATOM      2  C   UNL     1      19.084  33.207  16.521  0.00  0.00    +0.077 A 
ATOM      3  C   UNL     1      18.746  33.005  15.184  0.00  0.00    +0.040 A 
ATOM      4  C   UNL     1      19.744  32.831  14.196  0.00  0.00    +0.042 A 
ATOM      5  C   UNL     1      21.092  32.849  14.568  0.00  0.00    +0.080 A 
ATOM      6  C   UNL     1      21.415  32.980  15.916  0.00  0.00    +0.076 A 
ATOM      7  N   UNL     1      22.078  32.742  13.676  0.00  0.00    -0.235 NA
ATOM      8  C   UNL     1      21.726  32.623  12.391  0.00  0.00    +0.223 A 
ATOM      9  N   UNL     1      20.476  32.592  11.918  0.00  0.00    -0.220 NA
ATOM     10  C   UNL     1      19.487  32.662  12.822  0.00  0.00    +0.134 A 
ATOM     11  N   UNL     1      18.142  32.560  12.385  0.00  0.00    -0.299 N 
ATOM     12  H   UNL     1      17.662  31.831  12.904  0.00  0.00    +0.154 HD
ENDROOT
BRANCH  11  13
ATOM     13  C   UNL     1      17.562  32.843  11.136  0.00  0.00    +0.034 A 
ATOM     14  C   UNL     1      17.673  31.888  10.111  0.00  0.00    +0.046 A 
ATOM     15  C   UNL     1      17.036  32.078   8.881  0.00  0.00    +0.078 A 
ATOM     16  C   UNL     1      16.278  33.221   8.662  0.00  0.00    +0.142 A 
ATOM     17  C   UNL     1      16.140  34.172   9.665  0.00  0.00    +0.041 A 
ATOM     18  C   UNL     1      16.769  33.975  10.898  0.00  0.00    +0.026 A 
ATOM     19  F   UNL     1      15.641  33.411   7.497  0.00  0.00    -0.204 F 
ATOM     20 CL   UNL     1      17.169  30.861   7.671  0.00  0.00    -0.081 Cl
ENDBRANCH  11  13
BRANCH   2  21
ATOM     21  N   UNL     1      18.120  33.424  17.526  0.00  0.00    -0.279 N 
ATOM     22  C   UNL     1      17.422  34.538  17.892  0.00  0.00    +0.241 C 
ATOM     23  O   UNL     1      16.425  34.473  18.604  0.00  0.00    -0.271 OA
ATOM     24  H   UNL     1      17.902  32.603  18.091  0.00  0.00    +0.155 HD
BRANCH  22  25
ATOM     25  C   UNL     1      17.981  35.868  17.518  0.00  0.00    +0.068 C 
ATOM     26  C   UNL     1      18.857  36.478  18.333  0.00  0.00    +0.028 C 
BRANCH  26  27
ATOM     27  C   UNL     1      19.609  37.759  18.177  0.00  0.00    +0.160 C 
BRANCH  27  28
ATOM     28  N   UNL     1      21.090  37.741  17.889  0.00  0.00    +0.238 N 
ATOM     29  C   UNL     1      21.955  38.090  19.076  0.00  0.00    +0.131 C 
ATOM     30  C   UNL     1      23.382  38.329  18.602  0.00  0.00    +0.051 C 
ATOM     31  C   UNL     1      23.921  37.137  17.817  0.00  0.00    +0.010 C 
ATOM     32  C   UNL     1      23.003  36.779  16.652  0.00  0.00    +0.051 C 
ATOM     33  C   UNL     1      21.570  36.541  17.112  0.00  0.00    +0.131 C 
ATOM     34  H   UNL     1      21.206  38.532  17.241  0.00  0.00    +0.204 HD
ENDBRANCH  27  28
ENDBRANCH  26  27
ENDBRANCH  22  25
ENDBRANCH   2  21
BRANCH   1  36
ATOM     35  C   UNL     1      22.033  33.208  18.671  0.00  0.00    +0.277 C 
ATOM     36  O   UNL     1      20.677  33.286  18.243  0.00  0.00    -0.493 OA
ENDBRANCH   1  36
TORSDOF 6
ENDMDL
MODEL 2
REMARK minimizedAffinity -9.00975704
REMARK minimizedRMSD -1
REMARK  Name = 
REMARK  7 active torsions:
REMARK  status: ('A' for Active; 'I' for Inactive)
REMARK    1  A    between atoms: C_1  and  O_2
REMARK    2  A    between atoms: O_2  and  C_3
REMARK    3  A    between atoms: C_4  and  N_22
REMARK    4  A    between atoms: N_13  and  C_14
REMARK    5  A    between atoms: C_23  and  C_25
REMARK    6  A    between atoms: C_26  and  C_27
REMARK    7  A    between atoms: C_27  and  N_28
REMARK                            x       y       z     vdW  Elec       q    Type
REMARK                         _______ _______ _______ _____ _____    ______ ____
ROOT
ATOM      1  C   UNL     1      20.467  33.095  16.868  0.00  0.00    +0.143 A 
ATOM      2  C   UNL     1      19.118  33.169  16.495  0.00  0.00    +0.077 A 
ATOM      3  C   UNL     1      18.773  32.969  15.160  0.00  0.00    +0.040 A 
ATOM      4  C   UNL     1      19.766  32.791  14.167  0.00  0.00    +0.042 A 
ATOM      5  C   UNL     1      21.116  32.802  14.534  0.00  0.00    +0.080 A 
ATOM      6  C   UNL     1      21.445  32.929  15.880  0.00  0.00    +0.076 A 
ATOM      7  N   UNL     1      22.097  32.691  13.637  0.00  0.00    -0.235 NA
ATOM      8  C   UNL     1      21.740  32.574  12.354  0.00  0.00    +0.223 A 
ATOM      9  N   UNL     1      20.487  32.551  11.886  0.00  0.00    -0.220 NA
ATOM     10  C   UNL     1      19.502  32.625  12.794  0.00  0.00    +0.134 A 
ATOM     11  N   UNL     1      18.155  32.531  12.363  0.00  0.00    -0.299 N 
ATOM     12  H   UNL     1      17.673  31.804  12.884  0.00  0.00    +0.154 HD
ENDROOT
BRANCH  11  13
ATOM     13  C   UNL     1      17.571  32.818  11.116  0.00  0.00    +0.034 A 
ATOM     14  C   UNL     1      17.677  31.866  10.088  0.00  0.00    +0.046 A 
ATOM     15  C   UNL     1      17.037  32.060   8.861  0.00  0.00    +0.078 A 
ATOM     16  C   UNL     1      16.279  33.204   8.648  0.00  0.00    +0.142 A 
ATOM     17  C   UNL     1      16.145  34.152   9.654  0.00  0.00    +0.041 A 
ATOM     18  C   UNL     1      16.778  33.951  10.885  0.00  0.00    +0.026 A 
ATOM     19  F   UNL     1      15.639  33.399   7.486  0.00  0.00    -0.204 F 
ATOM     20 CL   UNL     1      17.165  30.847   7.647  0.00  0.00    -0.081 Cl
ENDBRANCH  11  13
BRANCH   2  21
ATOM     21  N   UNL     1      18.159  33.390  17.505  0.00  0.00    -0.279 N 
ATOM     22  C   UNL     1      17.484  34.511  17.887  0.00  0.00    +0.241 C 
ATOM     23  O   UNL     1      16.486  34.455  18.600  0.00  0.00    -0.271 OA
ATOM     24  H   UNL     1      17.927  32.566  18.058  0.00  0.00    +0.155 HD
BRANCH  22  25
ATOM     25  C   UNL     1      18.067  35.836  17.532  0.00  0.00    +0.068 C 
ATOM     26  C   UNL     1      19.067  36.346  18.269  0.00  0.00    +0.028 C 
BRANCH  26  27
ATOM     27  C   UNL     1      19.866  37.596  18.102  0.00  0.00    +0.160 C 
BRANCH  27  28
ATOM     28  N   UNL     1      19.705  38.738  19.075  0.00  0.00    +0.238 N 
ATOM     29  C   UNL     1      18.272  39.037  19.447  0.00  0.00    +0.131 C 
ATOM     30  C   UNL     1      18.214  40.368  20.183  0.00  0.00    +0.051 C 
ATOM     31  C   UNL     1      19.147  40.386  21.390  0.00  0.00    +0.010 C 
ATOM     32  C   UNL     1      20.577  40.037  20.990  0.00  0.00    +0.051 C 
ATOM     33  C   UNL     1      20.650  38.707  20.250  0.00  0.00    +0.131 C 
ATOM     34  H   UNL     1      20.006  39.553  18.523  0.00  0.00    +0.204 HD
ENDBRANCH  27  28
ENDBRANCH  26  27
ENDBRANCH  22  25
ENDBRANCH   2  21
BRANCH   1  36
ATOM     35  C   UNL     1      22.081  33.354  18.610  0.00  0.00    +0.277 C 
ATOM     36  O   UNL     1      20.718  33.237  18.210  0.00  0.00    -0.493 OA
ENDBRANCH   1  36
TORSDOF 6
ENDMDL
MODEL 3
REMARK minimizedAffinity -8.89806366
REMARK minimizedRMSD -1
REMARK  Name = 
REMARK  7 active torsions:
REMARK  status: ('A' for Active; 'I' for Inactive)
REMARK    1  A    between atoms: C_1  and  O_2
REMARK    2  A    between atoms: O_2  and  C_3
REMARK    3  A    between atoms: C_4  and  N_22
REMARK    4  A    between atoms: N_13  and  C_14
REMARK    5  A    between atoms: C_23  and  C_25
REMARK    6  A    between atoms: C_26  and  C_27
REMARK    7  A    between atoms: C_27  and  N_28
REMARK                            x       y       z     vdW  Elec       q    Type
REMARK                         _______ _______ _______ _____ _____    ______ ____
ROOT
ATOM      1  C   UNL     1      22.549  35.754  15.847  0.00  0.00    +0.143 A 
ATOM      2  C   UNL     1      21.182  35.991  15.643  0.00  0.00    +0.077 A 
ATOM      3  C   UNL     1      20.478  35.173  14.762  0.00  0.00    +0.040 A 
ATOM      4  C   UNL     1      21.137  34.175  14.004  0.00  0.00    +0.042 A 
ATOM      5  C   UNL     1      22.517  33.999  14.151  0.00  0.00    +0.080 A 
ATOM      6  C   UNL     1      23.197  34.774  15.087  0.00  0.00    +0.076 A 
ATOM      7  N   UNL     1      23.202  33.112  13.428  0.00  0.00    -0.235 NA
ATOM      8  C   UNL     1      22.513  32.390  12.538  0.00  0.00    +0.223 A 
ATOM      9  N   UNL     1      21.197  32.470  12.311  0.00  0.00    -0.220 NA
ATOM     10  C   UNL     1      20.506  33.337  13.066  0.00  0.00    +0.134 A 
ATOM     11  N   UNL     1      19.097  33.411  12.921  0.00  0.00    -0.299 N 
ATOM     12  H   UNL     1      18.648  33.295  13.825  0.00  0.00    +0.154 HD
ENDROOT
BRANCH  11  13
ATOM     13  C   UNL     1      18.272  33.085  11.830  0.00  0.00    +0.034 A 
ATOM     14  C   UNL     1      17.418  34.074  11.313  0.00  0.00    +0.046 A 
ATOM     15  C   UNL     1      16.646  33.831  10.174  0.00  0.00    +0.078 A 
ATOM     16  C   UNL     1      16.721  32.601   9.534  0.00  0.00    +0.142 A 
ATOM     17  C   UNL     1      17.569  31.612  10.017  0.00  0.00    +0.041 A 
ATOM     18  C   UNL     1      18.349  31.860  11.151  0.00  0.00    +0.026 A 
ATOM     19  F   UNL     1      16.005  32.356   8.427  0.00  0.00    -0.204 F 
ATOM     20 CL   UNL     1      15.646  35.088   9.555  0.00  0.00    -0.081 Cl
ENDBRANCH  11  13
BRANCH   2  21
ATOM     21  N   UNL     1      20.567  37.021  16.384  0.00  0.00    -0.279 N 
ATOM     22  C   UNL     1      19.707  36.989  17.442  0.00  0.00    +0.241 C 
ATOM     23  O   UNL     1      19.495  37.980  18.134  0.00  0.00    -0.271 OA
ATOM     24  H   UNL     1      20.800  37.964  16.076  0.00  0.00    +0.155 HD
BRANCH  22  25
ATOM     25  C   UNL     1      18.912  35.748  17.662  0.00  0.00    +0.068 C 
ATOM     26  C   UNL     1      17.570  35.806  17.671  0.00  0.00    +0.028 C 
BRANCH  26  27
ATOM     27  C   UNL     1      16.546  34.728  17.800  0.00  0.00    +0.160 C 
BRANCH  27  28
ATOM     28  N   UNL     1      15.694  34.340  16.616  0.00  0.00    +0.238 N 
ATOM     29  C   UNL     1      14.369  35.061  16.544  0.00  0.00    +0.131 C 
ATOM     30  C   UNL     1      13.490  34.386  15.500  0.00  0.00    +0.051 C 
ATOM     31  C   UNL     1      14.185  34.305  14.145  0.00  0.00    +0.010 C 
ATOM     32  C   UNL     1      15.540  33.614  14.257  0.00  0.00    +0.051 C 
ATOM     33  C   UNL     1      16.430  34.277  15.301  0.00  0.00    +0.131 C 
ATOM     34  H   UNL     1      15.448  33.362  16.822  0.00  0.00    +0.204 HD
ENDBRANCH  27  28
ENDBRANCH  26  27
ENDBRANCH  22  25
ENDBRANCH   2  21
BRANCH   1  36
ATOM     35  C   UNL     1      24.285  36.028  17.464  0.00  0.00    +0.277 C 
ATOM     36  O   UNL     1      23.156  36.561  16.777  0.00  0.00    -0.493 OA
ENDBRANCH   1  36
TORSDOF 6
ENDMDL
MODEL 4
REMARK minimizedAffinity -8.62442207
REMARK minimizedRMSD -1
REMARK  Name = 
REMARK  7 active torsions:
REMARK  status: ('A' for Active; 'I' for Inactive)
REMARK    1  A    between atoms: C_1  and  O_2
REMARK    2  A    between atoms: O_2  and  C_3
REMARK    3  A    between atoms: C_4  and  N_22
REMARK    4  A    between atoms: N_13  and  C_14
REMARK    5  A    between atoms: C_23  and  C_25
REMARK    6  A    between atoms: C_26  and  C_27
REMARK    7  A    between atoms: C_27  and  N_28
REMARK                            x       y       z     vdW  Elec       q    Type
REMARK                         _______ _______ _______ _____ _____    ______ ____
ROOT
ATOM      1  C   UNL     1      18.924  32.614  14.227  0.00  0.00    +0.143 A 
ATOM      2  C   UNL     1      19.647  32.445  13.038  0.00  0.00    +0.077 A 
ATOM      3  C   UNL     1      18.960  32.414  11.826  0.00  0.00    +0.040 A 
ATOM      4  C   UNL     1      17.545  32.454  11.787  0.00  0.00    +0.042 A 
ATOM      5  C   UNL     1      16.825  32.540  12.983  0.00  0.00    +0.080 A 
ATOM      6  C   UNL     1      17.525  32.642  14.182  0.00  0.00    +0.076 A 
ATOM      7  N   UNL     1      15.492  32.529  13.013  0.00  0.00    -0.235 NA
ATOM      8  C   UNL     1      14.857  32.425  11.840  0.00  0.00    +0.223 A 
ATOM      9  N   UNL     1      15.436  32.338  10.637  0.00  0.00    -0.220 NA
ATOM     10  C   UNL     1      16.777  32.387  10.609  0.00  0.00    +0.134 A 
ATOM     11  N   UNL     1      17.443  32.374   9.357  0.00  0.00    -0.299 N 
ATOM     12  H   UNL     1      18.079  33.163   9.293  0.00  0.00    +0.154 HD
ENDROOT
BRANCH  11  13
ATOM     13  C   UNL     1      17.035  31.871   8.109  0.00  0.00    +0.034 A 
ATOM     14  C   UNL     1      17.865  30.950   7.450  0.00  0.00    +0.046 A 
ATOM     15  C   UNL     1      17.465  30.350   6.253  0.00  0.00    +0.078 A 
ATOM     16  C   UNL     1      16.227  30.659   5.703  0.00  0.00    +0.142 A 
ATOM     17  C   UNL     1      15.381  31.555   6.344  0.00  0.00    +0.041 A 
ATOM     18  C   UNL     1      15.780  32.146   7.546  0.00  0.00    +0.026 A 
ATOM     19  F   UNL     1      15.815  30.077   4.567  0.00  0.00    -0.204 F 
ATOM     20 CL   UNL     1      18.500  29.197   5.504  0.00  0.00    -0.081 Cl
ENDBRANCH  11  13
BRANCH   2  21
ATOM     21  N   UNL     1      21.052  32.366  13.120  0.00  0.00    -0.279 N 
ATOM     22  C   UNL     1      21.990  33.267  13.531  0.00  0.00    +0.241 C 
ATOM     23  O   UNL     1      23.140  32.930  13.797  0.00  0.00    -0.271 OA
ATOM     24  H   UNL     1      21.447  31.479  12.813  0.00  0.00    +0.155 HD
BRANCH  22  25
ATOM     25  C   UNL     1      21.626  34.713  13.520  0.00  0.00    +0.068 C 
ATOM     26  C   UNL     1      21.085  35.274  14.613  0.00  0.00    +0.028 C 
BRANCH  26  27
ATOM     27  C   UNL     1      20.694  36.688  14.895  0.00  0.00    +0.160 C 
BRANCH  27  28
ATOM     28  N   UNL     1      19.867  37.021  16.112  0.00  0.00    +0.238 N 
ATOM     29  C   UNL     1      18.652  36.143  16.294  0.00  0.00    +0.131 C 
ATOM     30  C   UNL     1      17.752  36.750  17.361  0.00  0.00    +0.051 C 
ATOM     31  C   UNL     1      18.505  36.983  18.667  0.00  0.00    +0.010 C 
ATOM     32  C   UNL     1      19.751  37.834  18.444  0.00  0.00    +0.051 C 
ATOM     33  C   UNL     1      20.660  37.240  17.376  0.00  0.00    +0.131 C 
ATOM     34  H   UNL     1      19.485  37.949  15.882  0.00  0.00    +0.204 HD
ENDBRANCH  27  28
ENDBRANCH  26  27
ENDBRANCH  22  25
ENDBRANCH   2  21
BRANCH   1  36
ATOM     35  C   UNL     1      18.977  32.793  16.608  0.00  0.00    +0.277 C 
ATOM     36  O   UNL     1      19.678  32.700  15.371  0.00  0.00    -0.493 OA
ENDBRANCH   1  36
TORSDOF 6
ENDMDL
MODEL 5
REMARK minimizedAffinity -8.60469437
REMARK minimizedRMSD -1
REMARK  Name = 
REMARK  7 active torsions:
REMARK  status: ('A' for Active; 'I' for Inactive)
REMARK    1  A    between atoms: C_1  and  O_2
REMARK    2  A    between atoms: O_2  and  C_3
REMARK    3  A    between atoms: C_4  and  N_22
REMARK    4  A    between atoms: N_13  and  C_14
REMARK    5  A    between atoms: C_23  and  C_25
REMARK    6  A    between atoms: C_26  and  C_27
REMARK    7  A    between atoms: C_27  and  N_28
REMARK                            x       y       z     vdW  Elec       q    Type
REMARK                         _______ _______ _______ _____ _____    ______ ____
ROOT
ATOM      1  C   UNL     1      15.707  34.615  16.581  0.00  0.00    +0.143 A 
ATOM      2  C   UNL     1      15.999  34.316  15.243  0.00  0.00    +0.077 A 
ATOM      3  C   UNL     1      17.309  33.999  14.891  0.00  0.00    +0.040 A 
ATOM      4  C   UNL     1      18.359  34.068  15.839  0.00  0.00    +0.042 A 
ATOM      5  C   UNL     1      18.074  34.448  17.154  0.00  0.00    +0.080 A 
ATOM      6  C   UNL     1      16.751  34.693  17.511  0.00  0.00    +0.076 A 
ATOM      7  N   UNL     1      19.027  34.582  18.078  0.00  0.00    -0.235 NA
ATOM      8  C   UNL     1      20.285  34.342  17.694  0.00  0.00    +0.223 A 
ATOM      9  N   UNL     1      20.677  33.973  16.469  0.00  0.00    -0.220 NA
ATOM     10  C   UNL     1      19.712  33.804  15.553  0.00  0.00    +0.134 A 
ATOM     11  N   UNL     1      20.060  33.342  14.259  0.00  0.00    -0.299 N 
ATOM     12  H   UNL     1      19.505  32.526  14.019  0.00  0.00    +0.154 HD
ENDROOT
BRANCH  11  13
ATOM     13  C   UNL     1      21.272  33.432  13.551  0.00  0.00    +0.034 A 
ATOM     14  C   UNL     1      22.059  32.276  13.415  0.00  0.00    +0.046 A 
ATOM     15  C   UNL     1      23.225  32.288  12.644  0.00  0.00    +0.078 A 
ATOM     16  C   UNL     1      23.615  33.452  11.995  0.00  0.00    +0.142 A 
ATOM     17  C   UNL     1      22.845  34.603  12.101  0.00  0.00    +0.041 A 
ATOM     18  C   UNL     1      21.674  34.587  12.864  0.00  0.00    +0.026 A 
ATOM     19  F   UNL     1      24.718  33.478  11.233  0.00  0.00    -0.204 F 
ATOM     20 CL   UNL     1      24.134  30.837  12.477  0.00  0.00    -0.081 Cl
ENDBRANCH  11  13
BRANCH   2  21
ATOM     21  N   UNL     1      14.935  34.298  14.318  0.00  0.00    -0.279 N 
ATOM     22  C   UNL     1      14.730  33.568  13.184  0.00  0.00    +0.241 C 
ATOM     23  O   UNL     1      13.624  33.484  12.659  0.00  0.00    -0.271 OA
ATOM     24  H   UNL     1      14.179  34.949  14.527  0.00  0.00    +0.155 HD
BRANCH  22  25
ATOM     25  C   UNL     1      15.919  32.980  12.505  0.00  0.00    +0.068 C 
ATOM     26  C   UNL     1      15.907  32.797  11.174  0.00  0.00    +0.028 C 
BRANCH  26  27
ATOM     27  C   UNL     1      16.966  32.299  10.247  0.00  0.00    +0.160 C 
BRANCH  27  28
ATOM     28  N   UNL     1      16.587  31.581   8.974  0.00  0.00    +0.238 N 
ATOM     29  C   UNL     1      15.195  31.894   8.478  0.00  0.00    +0.131 C 
ATOM     30  C   UNL     1      14.822  30.906   7.381  0.00  0.00    +0.051 C 
ATOM     31  C   UNL     1      15.854  30.897   6.257  0.00  0.00    +0.010 C 
ATOM     32  C   UNL     1      17.256  30.624   6.794  0.00  0.00    +0.051 C 
ATOM     33  C   UNL     1      17.641  31.603   7.896  0.00  0.00    +0.131 C 
ATOM     34  H   UNL     1      16.542  30.597   9.272  0.00  0.00    +0.204 HD
ENDBRANCH  27  28
ENDBRANCH  26  27
ENDBRANCH  22  25
ENDBRANCH   2  21
BRANCH   1  36
ATOM     35  C   UNL     1      14.012  36.194  17.164  0.00  0.00    +0.277 C 
ATOM     36  O   UNL     1      14.384  34.853  16.859  0.00  0.00    -0.493 OA
ENDBRANCH   1  36
TORSDOF 6
ENDMDL
