MODEL 1
REMARK minimizedAffinity -7.25714111
REMARK minimizedRMSD -1
REMARK  Name = 
REMARK  1 active torsions:
REMARK  status: ('A' for Active; 'I' for Inactive)
REMARK    1  A    between atoms: N_6  and  C_7
REMARK                            x       y       z     vdW  Elec       q    Type
REMARK                         _______ _______ _______ _____ _____    ______ ____
ROOT
ATOM      1  C   UNL     1      16.159  32.909  11.803  0.00  0.00    +0.108 A 
ATOM      2  C   UNL     1      17.421  33.236  12.336  0.00  0.00    +0.082 A 
ATOM      3  C   UNL     1      17.568  34.063  13.458  0.00  0.00    +0.106 A 
ATOM      4  N   UNL     1      18.783  34.397  13.957  0.00  0.00    -0.251 NA
ATOM      5  C   UNL     1      18.811  35.201  15.044  0.00  0.00    +0.131 A 
ATOM      6  C   UNL     1      17.659  35.672  15.629  0.00  0.00    +0.131 A 
ATOM      7  N   UNL     1      16.435  35.356  15.152  0.00  0.00    -0.252 NA
ATOM      8  C   UNL     1      16.393  34.556  14.074  0.00  0.00    +0.090 A 
ATOM      9  C   UNL     1      15.151  34.202  13.567  0.00  0.00    +0.033 A 
ATOM     10  C   UNL     1      15.021  33.379  12.447  0.00  0.00    +0.043 A 
ATOM     11 BR   UNL     1      18.981  32.536  11.471  0.00  0.00    -0.045 Br
ENDROOT
BRANCH   1  17
ATOM     12  C   UNL     1      15.268  32.109   7.179  0.00  0.00    +0.221 C 
ATOM     13  C   UNL     1      15.474  33.601   7.472  0.00  0.00    +0.230 C 
ATOM     14  N   UNL     1      15.812  33.654   8.897  0.00  0.00    -0.279 N 
ATOM     15  C   UNL     1      15.799  32.388   9.407  0.00  0.00    +0.334 C 
ATOM     16  N   UNL     1      15.504  31.445   8.462  0.00  0.00    -0.238 N 
ATOM     17  N   UNL     1      16.090  32.043  10.668  0.00  0.00    -0.208 N 
ATOM     18  H   UNL     1      16.192  34.449   9.392  0.00  0.00    +0.258 HD
ATOM     19  H   UNL     1      15.423  30.456   8.659  0.00  0.00    +0.244 HD
ATOM     20  H   UNL     1      16.371  31.079  10.824  0.00  0.00    +0.251 HD
ENDBRANCH   1  17
TORSDOF 1
ENDMDL
MODEL 2
REMARK minimizedAffinity -6.71439219
REMARK minimizedRMSD -1
REMARK  Name = 
REMARK  1 active torsions:
REMARK  status: ('A' for Active; 'I' for Inactive)
REMARK    1  A    between atoms: N_6  and  C_7
REMARK                            x       y       z     vdW  Elec       q    Type
REMARK                         _______ _______ _______ _____ _____    ______ ____
ROOT
ATOM      1  C   UNL     1      17.911  32.101  11.298  0.00  0.00    +0.108 A 
ATOM      2  C   UNL     1      16.957  32.805  12.058  0.00  0.00    +0.082 A 
ATOM      3  C   UNL     1      17.321  33.666  13.103  0.00  0.00    +0.106 A 
ATOM      4  N   UNL     1      16.403  34.326  13.851  0.00  0.00    -0.251 NA
ATOM      5  C   UNL     1      16.862  35.132  14.834  0.00  0.00    +0.131 A 
ATOM      6  C   UNL     1      18.207  35.284  15.079  0.00  0.00    +0.131 A 
ATOM      7  N   UNL     1      19.143  34.639  14.351  0.00  0.00    -0.252 NA
ATOM      8  C   UNL     1      18.700  33.836  13.370  0.00  0.00    +0.090 A 
ATOM      9  C   UNL     1      19.637  33.169  12.594  0.00  0.00    +0.033 A 
ATOM     10  C   UNL     1      19.260  32.312  11.558  0.00  0.00    +0.043 A 
ATOM     11 BR   UNL     1      15.102  32.548  11.652  0.00  0.00    -0.045 Br
ENDROOT
BRANCH   1  17
ATOM     12  C   UNL     1      15.915  31.451   7.007  0.00  0.00    +0.221 C 
ATOM     13  C   UNL     1      16.406  32.893   7.197  0.00  0.00    +0.230 C 
ATOM     14  N   UNL     1      17.052  32.891   8.512  0.00  0.00    -0.279 N 
ATOM     15  C   UNL     1      16.959  31.643   9.056  0.00  0.00    +0.334 C 
ATOM     16  N   UNL     1      16.323  30.759   8.230  0.00  0.00    -0.238 N 
ATOM     17  N   UNL     1      17.463  31.257  10.235  0.00  0.00    -0.208 N 
ATOM     18  H   UNL     1      17.649  33.617   8.886  0.00  0.00    +0.258 HD
ATOM     19  H   UNL     1      16.138  29.794   8.473  0.00  0.00    +0.244 HD
ATOM     20  H   UNL     1      17.621  30.260  10.360  0.00  0.00    +0.251 HD
ENDBRANCH   1  17
TORSDOF 1
ENDMDL
MODEL 3
REMARK minimizedAffinity -6.4346199
REMARK minimizedRMSD -1
REMARK  Name = 
REMARK  1 active torsions:
REMARK  status: ('A' for Active; 'I' for Inactive)
REMARK    1  A    between atoms: N_6  and  C_7
REMARK                            x       y       z     vdW  Elec       q    Type
REMARK                         _______ _______ _______ _____ _____    ______ ____
ROOT
ATOM      1  C   UNL     1      18.530  32.643  14.504  0.00  0.00    +0.108 A 
ATOM      2  C   UNL     1      17.925  33.349  15.562  0.00  0.00    +0.082 A 
ATOM      3  C   UNL     1      16.645  33.910  15.451  0.00  0.00    +0.106 A 
ATOM      4  N   UNL     1      16.072  34.611  16.460  0.00  0.00    -0.251 NA
ATOM      5  C   UNL     1      14.833  35.110  16.247  0.00  0.00    +0.131 A 
ATOM      6  C   UNL     1      14.170  34.924  15.057  0.00  0.00    +0.131 A 
ATOM      7  N   UNL     1      14.717  34.232  14.035  0.00  0.00    -0.252 NA
ATOM      8  C   UNL     1      15.947  33.729  14.233  0.00  0.00    +0.090 A 
ATOM      9  C   UNL     1      16.533  33.001  13.207  0.00  0.00    +0.033 A 
ATOM     10  C   UNL     1      17.809  32.450  13.332  0.00  0.00    +0.043 A 
ATOM     11 BR   UNL     1      18.908  33.560  17.193  0.00  0.00    -0.045 Br
ENDROOT
BRANCH   1  17
ATOM     12  C   UNL     1      23.245  32.597  13.737  0.00  0.00    +0.221 C 
ATOM     13  C   UNL     1      22.622  33.958  13.396  0.00  0.00    +0.230 C 
ATOM     14  N   UNL     1      21.210  33.820  13.762  0.00  0.00    -0.279 N 
ATOM     15  C   UNL     1      20.993  32.561  14.241  0.00  0.00    +0.334 C 
ATOM     16  N   UNL     1      22.132  31.806  14.265  0.00  0.00    -0.238 N 
ATOM     17  N   UNL     1      19.830  32.082  14.701  0.00  0.00    -0.208 N 
ATOM     18  H   UNL     1      20.538  34.571  13.849  0.00  0.00    +0.258 HD
ATOM     19  H   UNL     1      22.162  30.839  14.563  0.00  0.00    +0.244 HD
ATOM     20  H   UNL     1      19.880  31.280  15.324  0.00  0.00    +0.251 HD
ENDBRANCH   1  17
TORSDOF 1
ENDMDL
MODEL 4
REMARK minimizedAffinity -6.31900978
REMARK minimizedRMSD -1
REMARK  Name = 
REMARK  1 active torsions:
REMARK  status: ('A' for Active; 'I' for Inactive)
REMARK    1  A    between atoms: N_6  and  C_7
REMARK                            x       y       z     vdW  Elec       q    Type
REMARK                         _______ _______ _______ _____ _____    ______ ____
ROOT
ATOM      1  C   UNL     1      18.345  32.939  15.575  0.00  0.00    +0.108 A 
ATOM      2  C   UNL     1      17.190  33.408  14.920  0.00  0.00    +0.082 A 
ATOM      3  C   UNL     1      16.177  34.102  15.596  0.00  0.00    +0.106 A 
ATOM      4  N   UNL     1      15.054  34.534  14.971  0.00  0.00    -0.251 NA
ATOM      5  C   UNL     1      14.140  35.193  15.718  0.00  0.00    +0.131 A 
ATOM      6  C   UNL     1      14.327  35.421  17.061  0.00  0.00    +0.131 A 
ATOM      7  N   UNL     1      15.435  35.001  17.709  0.00  0.00    -0.252 NA
ATOM      8  C   UNL     1      16.352  34.347  16.979  0.00  0.00    +0.090 A 
ATOM      9  C   UNL     1      17.509  33.914  17.612  0.00  0.00    +0.033 A 
ATOM     10  C   UNL     1      18.508  33.222  16.926  0.00  0.00    +0.043 A 
ATOM     11 BR   UNL     1      17.003  33.059  13.045  0.00  0.00    -0.045 Br
ENDROOT
BRANCH   1  17
ATOM     12  C   UNL     1      22.239  32.931  12.808  0.00  0.00    +0.221 C 
ATOM     13  C   UNL     1      22.082  34.253  13.571  0.00  0.00    +0.230 C 
ATOM     14  N   UNL     1      20.902  34.052  14.417  0.00  0.00    -0.279 N 
ATOM     15  C   UNL     1      20.400  32.803  14.196  0.00  0.00    +0.334 C 
ATOM     16  N   UNL     1      21.134  32.097  13.285  0.00  0.00    -0.238 N 
ATOM     17  N   UNL     1      19.344  32.257  14.813  0.00  0.00    -0.208 N 
ATOM     18  H   UNL     1      20.611  34.640  15.187  0.00  0.00    +0.258 HD
ATOM     19  H   UNL     1      20.900  31.163  12.974  0.00  0.00    +0.244 HD
ATOM     20  H   UNL     1      19.288  31.241  14.811  0.00  0.00    +0.251 HD
ENDBRANCH   1  17
TORSDOF 1
ENDMDL
MODEL 5
REMARK minimizedAffinity -6.2351985
REMARK minimizedRMSD -1
REMARK  Name = 
REMARK  1 active torsions:
REMARK  status: ('A' for Active; 'I' for Inactive)
REMARK    1  A    between atoms: N_6  and  C_7
REMARK                            x       y       z     vdW  Elec       q    Type
REMARK                         _______ _______ _______ _____ _____    ______ ____
ROOT
ATOM      1  C   UNL     1      18.677  34.477  14.055  0.00  0.00    +0.108 A 
ATOM      2  C   UNL     1      19.980  34.976  14.247  0.00  0.00    +0.082 A 
ATOM      3  C   UNL     1      21.109  34.348  13.702  0.00  0.00    +0.106 A 
ATOM      4  N   UNL     1      22.365  34.814  13.906  0.00  0.00    -0.251 NA
ATOM      5  C   UNL     1      23.383  34.132  13.334  0.00  0.00    +0.131 A 
ATOM      6  C   UNL     1      23.167  33.007  12.574  0.00  0.00    +0.131 A 
ATOM      7  N   UNL     1      21.927  32.520  12.355  0.00  0.00    -0.252 NA
ATOM      8  C   UNL     1      20.906  33.189  12.916  0.00  0.00    +0.090 A 
ATOM      9  C   UNL     1      19.617  32.723  12.699  0.00  0.00    +0.033 A 
ATOM     10  C   UNL     1      18.503  33.357  13.251  0.00  0.00    +0.043 A 
ATOM     11 BR   UNL     1      20.201  36.553  15.312  0.00  0.00    -0.045 Br
ENDROOT
BRANCH   1  17
ATOM     12  C   UNL     1      15.315  35.016  17.406  0.00  0.00    +0.221 C 
ATOM     13  C   UNL     1      16.437  34.074  17.866  0.00  0.00    +0.230 C 
ATOM     14  N   UNL     1      17.405  34.089  16.766  0.00  0.00    -0.279 N 
ATOM     15  C   UNL     1      16.942  34.902  15.773  0.00  0.00    +0.334 C 
ATOM     16  N   UNL     1      15.743  35.480  16.085  0.00  0.00    -0.238 N 
ATOM     17  N   UNL     1      17.574  35.184  14.626  0.00  0.00    -0.208 N 
ATOM     18  H   UNL     1      18.351  33.733  16.797  0.00  0.00    +0.258 HD
ATOM     19  H   UNL     1      15.233  36.092  15.461  0.00  0.00    +0.244 HD
ATOM     20  H   UNL     1      17.295  36.038  14.149  0.00  0.00    +0.251 HD
ENDBRANCH   1  17
TORSDOF 1
ENDMDL
