REMARK  Name = =
REMARK  0 active torsions:
REMARK  status: ('A' for Active; 'I' for Inactive)
REMARK                            x       y       z     vdW  Elec       q    Type
REMARK                         _______ _______ _______ _____ _____    ______ ____
ROOT
ATOM      1  C   UNL     1      16.222  33.622  11.272  0.00  0.00    +0.046 C 
ATOM      2  C   UNL     1      16.333  33.745  12.764  0.00  0.00    -0.023 C 
ATOM      3  C   UNL     1      15.287  34.392  13.467  0.00  0.00    +0.033 C 
ATOM      4  C   UNL     1      15.266  34.575  14.842  0.00  0.00    +0.073 C 
ATOM      5  C   UNL     1      16.348  34.088  15.592  0.00  0.00    +0.028 C 
ATOM      6  C   UNL     1      16.347  34.267  16.986  0.00  0.00    +0.013 C 
ATOM      7  C   UNL     1      15.278  34.918  17.584  0.00  0.00    +0.020 C 
ATOM      8  C   UNL     1      14.253  35.364  16.768  0.00  0.00    +0.111 C 
ATOM      9  N   UNL     1      14.228  35.206  15.423  0.00  0.00    -0.255 NA
ATOM     10  C   UNL     1      17.420  33.428  14.943  0.00  0.00    +0.100 A 
ATOM     11  C   UNL     1      17.400  33.263  13.553  0.00  0.00    +0.073 A 
ATOM     12  N   UNL     1      18.581  32.590  13.298  0.00  0.00    -0.315 N 
ATOM     13  C   UNL     1      19.238  32.399  14.494  0.00  0.00    +0.194 A 
ATOM     14  N   UNL     1      18.558  32.888  15.496  0.00  0.00    -0.214 NA
ATOM     15  N   UNL     1      20.423  31.788  14.593  0.00  0.00    -0.329 N 
ATOM     16  C   UNL     1      19.095  32.143  12.027  0.00  0.00    +0.152 C 
ATOM     17  H   UNL     1      20.834  31.691  15.515  0.00  0.00    +0.145 HD
ATOM     18  H   UNL     1      20.962  31.414  13.826  0.00  0.00    +0.145 HD
ENDROOT
TORSDOF 0
