REMARK  Name = 
REMARK  2 active torsions:
REMARK  status: ('A' for Active; 'I' for Inactive)
REMARK    1  A    between atoms: C_1  and  C_2
REMARK    2  A    between atoms: C_7  and  C_8
REMARK                            x       y       z     vdW  Elec       q    Type
REMARK                         _______ _______ _______ _____ _____    ______ ____
ROOT
ATOM      1  C   UNL     1       2.886  -1.449  -0.124  0.00  0.00    +0.044 C 
ATOM      2  C   UNL     1       1.581  -0.698  -0.055  0.00  0.00    -0.045 A 
ATOM      3  C   UNL     1       0.379  -1.435  -0.068  0.00  0.00    +0.031 A 
ATOM      4  C   UNL     1      -0.816  -0.716  -0.001  0.00  0.00    +0.066 A 
ATOM      5  C   UNL     1      -0.869   0.669   0.078  0.00  0.00    +0.089 A 
ATOM      6  C   UNL     1       0.328   1.397   0.093  0.00  0.00    +0.033 A 
ATOM      7  C   UNL     1       1.559   0.712   0.030  0.00  0.00    -0.045 A 
ATOM      8  C   UNL     1       2.833   1.515   0.044  0.00  0.00    +0.044 C 
ATOM      9  N   UNL     1      -2.170   1.109   0.131  0.00  0.00    -0.236 NA
ATOM     10  C   UNL     1      -2.902   0.020   0.086  0.00  0.00    +0.197 A 
ATOM     11  N   UNL     1      -2.131  -1.105   0.007  0.00  0.00    -0.344 N 
ATOM     12  H   UNL     1      -2.470  -2.054  -0.038  0.00  0.00    +0.167 HD
ENDROOT
TORSDOF 0
