MODEL 1
REMARK minimizedAffinity -11.3187752
REMARK minimizedRMSD -1
REMARK  Name = 
REMARK  5 active torsions:
REMARK  status: ('A' for Active; 'I' for Inactive)
REMARK    1  A    between atoms: C_4  and  C_8
REMARK    2  A    between atoms: N_13  and  C_14
REMARK    3  A    between atoms: C_16  and  O_21
REMARK    4  A    between atoms: O_21  and  C_22
REMARK    5  A    between atoms: C_25  and  C_28
REMARK                            x       y       z     vdW  Elec       q    Type
REMARK                         _______ _______ _______ _____ _____    ______ ____
ROOT
ATOM      1  C   UNL     1      22.404  34.048  12.590  0.00  0.00    +0.038 A 
ATOM      2  C   UNL     1      20.994  33.013  12.423  0.00  0.00    +0.071 A 
ATOM      3  C   UNL     1      19.513  33.420  13.366  0.00  0.00    +0.150 A 
ATOM      4  C   UNL     1      19.574  35.075  14.544  0.00  0.00    +0.083 A 
ATOM      5  C   UNL     1      21.114  36.015  14.601  0.00  0.00    +0.025 A 
ATOM      6  C   UNL     1      22.466  35.485  13.629  0.00  0.00    +0.025 A 
ATOM      7 CL   UNL     1      18.500  36.084  15.675  0.00  0.00    -0.080 Cl
ENDROOT
BRANCH   1  13
ATOM      8  C   UNL     1      23.545  31.798  13.178  0.00  0.00    +0.257 C 
ATOM      9  O   UNL     1      23.428  30.574  13.117  0.00  0.00    -0.270 OA
ATOM     10  N   UNL     1      24.508  32.439  12.402  0.00  0.00    -0.236 N 
ATOM     11  C   UNL     1      24.297  33.336  11.375  0.00  0.00    +0.310 C 
ATOM     12  O   UNL     1      25.009  33.331  10.375  0.00  0.00    -0.252 OA
ATOM     13  N   UNL     1      23.191  34.130  11.453  0.00  0.00    -0.269 N 
ATOM     14  H   UNL     1      25.254  31.809  12.135  0.00  0.00    +0.159 HD
ATOM     15  H   UNL     1      22.827  34.478  10.576  0.00  0.00    +0.156 HD
BRANCH   8  19
ATOM     16  C   UNL     1      21.978  34.841  16.982  0.00  0.00    +0.006 A 
ATOM     17  C   UNL     1      23.587  34.807  16.208  0.00  0.00    +0.039 A 
ATOM     18  C   UNL     1      23.987  33.717  14.890  0.00  0.00    +0.138 A 
ATOM     19  C   UNL     1      22.740  32.569  14.270  0.00  0.00    +0.107 A 
ATOM     20  C   UNL     1      20.921  32.620  15.168  0.00  0.00    +0.138 A 
ATOM     21  C   UNL     1      20.653  33.785  16.512  0.00  0.00    +0.039 A 
ATOM     22  F   UNL     1      19.777  31.906  14.956  0.00  0.00    -0.205 F 
ATOM     23  F   UNL     1      25.202  33.782  14.330  0.00  0.00    -0.205 F 
ENDBRANCH   8  19
ENDBRANCH   1  13
BRANCH   3  24
ATOM     24  O   UNL     1      18.487  32.541  12.932  0.00  0.00    -0.435 OA
BRANCH  24  25
ATOM     25  C   UNL     1      17.853  32.767  11.712  0.00  0.00    +0.239 A 
ATOM     26  C   UNL     1      16.757  33.626  11.715  0.00  0.00    +0.103 A 
ATOM     27  C   UNL     1      16.059  33.812  10.523  0.00  0.00    +0.039 A 
ATOM     28  C   UNL     1      16.463  33.135   9.365  0.00  0.00    +0.074 A 
ATOM     29  C   UNL     1      17.568  32.301   9.462  0.00  0.00    +0.127 A 
ATOM     30  N   UNL     1      18.264  32.099  10.605  0.00  0.00    -0.219 NA
ATOM     31 CL   UNL     1      16.231  34.451  13.132  0.00  0.00    -0.078 Cl
BRANCH  28  32
ATOM     32  C   UNL     1      15.735  33.302   8.066  0.00  0.00    +0.419 C 
ATOM     33  F   UNL     1      14.824  32.315   7.856  0.00  0.00    -0.166 F 
ATOM     34  F   UNL     1      15.051  34.474   7.975  0.00  0.00    -0.166 F 
ATOM     35  F   UNL     1      16.574  33.274   6.995  0.00  0.00    -0.166 F 
ENDBRANCH  28  32
ENDBRANCH  24  25
ENDBRANCH   3  24
TORSDOF 5
ENDMDL
MODEL 2
REMARK minimizedAffinity -11.0870991
REMARK minimizedRMSD -1
REMARK  Name = 
REMARK  5 active torsions:
REMARK  status: ('A' for Active; 'I' for Inactive)
REMARK    1  A    between atoms: C_4  and  C_8
REMARK    2  A    between atoms: N_13  and  C_14
REMARK    3  A    between atoms: C_16  and  O_21
REMARK    4  A    between atoms: O_21  and  C_22
REMARK    5  A    between atoms: C_25  and  C_28
REMARK                            x       y       z     vdW  Elec       q    Type
REMARK                         _______ _______ _______ _____ _____    ______ ____
ROOT
ATOM      1  C   UNL     1      22.642  34.067  12.622  0.00  0.00    +0.038 A 
ATOM      2  C   UNL     1      21.151  33.141  12.542  0.00  0.00    +0.071 A 
ATOM      3  C   UNL     1      19.793  33.605  13.632  0.00  0.00    +0.150 A 
ATOM      4  C   UNL     1      20.077  35.195  14.865  0.00  0.00    +0.083 A 
ATOM      5  C   UNL     1      21.681  36.022  14.819  0.00  0.00    +0.025 A 
ATOM      6  C   UNL     1      22.900  35.446  13.708  0.00  0.00    +0.025 A 
ATOM      7 CL   UNL     1      19.183  36.222  16.129  0.00  0.00    -0.080 Cl
ENDROOT
BRANCH   1  13
ATOM      8  C   UNL     1      23.697  31.737  13.033  0.00  0.00    +0.257 C 
ATOM      9  O   UNL     1      23.502  30.524  12.943  0.00  0.00    -0.270 OA
ATOM     10  N   UNL     1      24.624  32.351  12.195  0.00  0.00    -0.236 N 
ATOM     11  C   UNL     1      24.377  33.296  11.221  0.00  0.00    +0.310 C 
ATOM     12  O   UNL     1      24.998  33.289  10.162  0.00  0.00    -0.252 OA
ATOM     13  N   UNL     1      23.330  34.147  11.422  0.00  0.00    -0.269 N 
ATOM     14  H   UNL     1      25.306  31.691  11.843  0.00  0.00    +0.159 HD
ATOM     15  H   UNL     1      22.912  34.547  10.593  0.00  0.00    +0.156 HD
BRANCH   8  19
ATOM     16  C   UNL     1      22.651  34.709  17.065  0.00  0.00    +0.006 A 
ATOM     17  C   UNL     1      24.186  34.606  16.157  0.00  0.00    +0.039 A 
ATOM     18  C   UNL     1      24.403  33.549  14.770  0.00  0.00    +0.138 A 
ATOM     19  C   UNL     1      23.036  32.510  14.216  0.00  0.00    +0.107 A 
ATOM     20  C   UNL     1      21.305  32.637  15.267  0.00  0.00    +0.138 A 
ATOM     21  C   UNL     1      21.226  33.759  16.671  0.00  0.00    +0.039 A 
ATOM     22  F   UNL     1      20.103  32.006  15.126  0.00  0.00    -0.205 F 
ATOM     23  F   UNL     1      25.569  33.562  14.113  0.00  0.00    -0.205 F 
ENDBRANCH   8  19
ENDBRANCH   1  13
BRANCH   3  24
ATOM     24  O   UNL     1      18.671  32.820  13.257  0.00  0.00    -0.435 OA
BRANCH  24  25
ATOM     25  C   UNL     1      17.393  33.203  13.661  0.00  0.00    +0.239 A 
ATOM     26  C   UNL     1      16.479  33.518  12.659  0.00  0.00    +0.103 A 
ATOM     27  C   UNL     1      15.216  33.975  13.035  0.00  0.00    +0.039 A 
ATOM     28  C   UNL     1      14.902  34.115  14.392  0.00  0.00    +0.074 A 
ATOM     29  C   UNL     1      15.880  33.775  15.316  0.00  0.00    +0.127 A 
ATOM     30  N   UNL     1      17.113  33.330  14.982  0.00  0.00    -0.219 NA
ATOM     31 CL   UNL     1      16.853  33.373  10.985  0.00  0.00    -0.078 Cl
BRANCH  28  32
ATOM     32  C   UNL     1      13.559  34.609  14.838  0.00  0.00    +0.419 C 
ATOM     33  F   UNL     1      13.565  35.942  15.106  0.00  0.00    -0.166 F 
ATOM     34  F   UNL     1      12.576  34.413  13.918  0.00  0.00    -0.166 F 
ATOM     35  F   UNL     1      13.134  33.998  15.977  0.00  0.00    -0.166 F 
ENDBRANCH  28  32
ENDBRANCH  24  25
ENDBRANCH   3  24
TORSDOF 5
ENDMDL
MODEL 3
REMARK minimizedAffinity -10.5732746
REMARK minimizedRMSD -1
REMARK  Name = 
REMARK  5 active torsions:
REMARK  status: ('A' for Active; 'I' for Inactive)
REMARK    1  A    between atoms: C_4  and  C_8
REMARK    2  A    between atoms: N_13  and  C_14
REMARK    3  A    between atoms: C_16  and  O_21
REMARK    4  A    between atoms: O_21  and  C_22
REMARK    5  A    between atoms: C_25  and  C_28
REMARK                            x       y       z     vdW  Elec       q    Type
REMARK                         _______ _______ _______ _____ _____    ______ ____
ROOT
ATOM      1  C   UNL     1      20.229  34.877  14.264  0.00  0.00    +0.038 A 
ATOM      2  C   UNL     1      19.366  33.502  13.592  0.00  0.00    +0.071 A 
ATOM      3  C   UNL     1      17.591  33.379  13.880  0.00  0.00    +0.150 A 
ATOM      4  C   UNL     1      16.706  34.866  14.945  0.00  0.00    +0.083 A 
ATOM      5  C   UNL     1      17.753  36.198  15.567  0.00  0.00    +0.025 A 
ATOM      6  C   UNL     1      19.463  36.169  15.208  0.00  0.00    +0.025 A 
ATOM      7 CL   UNL     1      15.037  35.417  15.547  0.00  0.00    -0.080 Cl
ENDROOT
BRANCH   1  13
ATOM      8  C   UNL     1      21.668  32.970  15.267  0.00  0.00    +0.257 C 
ATOM      9  O   UNL     1      21.941  31.773  15.176  0.00  0.00    -0.270 OA
ATOM     10  N   UNL     1      22.621  33.924  14.916  0.00  0.00    -0.236 N 
ATOM     11  C   UNL     1      22.557  34.832  13.879  0.00  0.00    +0.310 C 
ATOM     12  O   UNL     1      23.558  35.123  13.231  0.00  0.00    -0.252 OA
ATOM     13  N   UNL     1      21.322  35.285  13.517  0.00  0.00    -0.269 N 
ATOM     14  H   UNL     1      23.561  33.550  14.963  0.00  0.00    +0.159 HD
ATOM     15  H   UNL     1      21.227  35.611  12.564  0.00  0.00    +0.156 HD
BRANCH   8  19
ATOM     16  C   UNL     1      17.990  35.083  18.129  0.00  0.00    +0.006 A 
ATOM     17  C   UNL     1      19.702  35.577  18.019  0.00  0.00    +0.039 A 
ATOM     18  C   UNL     1      20.862  34.770  16.974  0.00  0.00    +0.138 A 
ATOM     19  C   UNL     1      20.330  33.378  15.956  0.00  0.00    +0.107 A 
ATOM     20  C   UNL     1      18.382  32.829  16.102  0.00  0.00    +0.138 A 
ATOM     21  C   UNL     1      17.307  33.742  17.219  0.00  0.00    +0.039 A 
ATOM     22  F   UNL     1      17.663  31.842  15.491  0.00  0.00    -0.205 F 
ATOM     23  F   UNL     1      22.118  35.228  16.911  0.00  0.00    -0.205 F 
ENDBRANCH   8  19
ENDBRANCH   1  13
BRANCH   3  24
ATOM     24  O   UNL     1      17.117  32.287  13.106  0.00  0.00    -0.435 OA
BRANCH  24  25
ATOM     25  C   UNL     1      16.919  32.445  11.736  0.00  0.00    +0.239 A 
ATOM     26  C   UNL     1      15.690  32.957  11.327  0.00  0.00    +0.103 A 
ATOM     27  C   UNL     1      15.436  33.057   9.960  0.00  0.00    +0.039 A 
ATOM     28  C   UNL     1      16.404  32.636   9.039  0.00  0.00    +0.074 A 
ATOM     29  C   UNL     1      17.598  32.140   9.544  0.00  0.00    +0.127 A 
ATOM     30  N   UNL     1      17.872  32.031  10.864  0.00  0.00    -0.219 NA
ATOM     31 CL   UNL     1      14.479  33.459  12.443  0.00  0.00    -0.078 Cl
BRANCH  28  32
ATOM     32  C   UNL     1      16.168  32.719   7.562  0.00  0.00    +0.419 C 
ATOM     33  F   UNL     1      17.326  32.670   6.851  0.00  0.00    -0.166 F 
ATOM     34  F   UNL     1      15.386  31.715   7.080  0.00  0.00    -0.166 F 
ATOM     35  F   UNL     1      15.552  33.878   7.200  0.00  0.00    -0.166 F 
ENDBRANCH  28  32
ENDBRANCH  24  25
ENDBRANCH   3  24
TORSDOF 5
ENDMDL
MODEL 4
REMARK minimizedAffinity -10.2326021
REMARK minimizedRMSD -1
REMARK  Name = 
REMARK  5 active torsions:
REMARK  status: ('A' for Active; 'I' for Inactive)
REMARK    1  A    between atoms: C_4  and  C_8
REMARK    2  A    between atoms: N_13  and  C_14
REMARK    3  A    between atoms: C_16  and  O_21
REMARK    4  A    between atoms: O_21  and  C_22
REMARK    5  A    between atoms: C_25  and  C_28
REMARK                            x       y       z     vdW  Elec       q    Type
REMARK                         _______ _______ _______ _____ _____    ______ ____
ROOT
ATOM      1  C   UNL     1      19.975  35.178  14.606  0.00  0.00    +0.038 A 
ATOM      2  C   UNL     1      19.142  33.786  13.932  0.00  0.00    +0.071 A 
ATOM      3  C   UNL     1      17.394  33.566  14.311  0.00  0.00    +0.150 A 
ATOM      4  C   UNL     1      16.501  34.970  15.478  0.00  0.00    +0.083 A 
ATOM      5  C   UNL     1      17.518  36.330  16.091  0.00  0.00    +0.025 A 
ATOM      6  C   UNL     1      19.204  36.398  15.637  0.00  0.00    +0.025 A 
ATOM      7 CL   UNL     1      14.844  35.417  16.190  0.00  0.00    -0.080 Cl
ENDROOT
BRANCH   1  13
ATOM      8  C   UNL     1      21.568  33.332  15.483  0.00  0.00    +0.257 C 
ATOM      9  O   UNL     1      21.902  32.155  15.347  0.00  0.00    -0.270 OA
ATOM     10  N   UNL     1      22.447  34.346  15.110  0.00  0.00    -0.236 N 
ATOM     11  C   UNL     1      22.279  35.274  14.103  0.00  0.00    +0.310 C 
ATOM     12  O   UNL     1      23.228  35.636  13.413  0.00  0.00    -0.252 OA
ATOM     13  N   UNL     1      21.004  35.665  13.815  0.00  0.00    -0.269 N 
ATOM     14  H   UNL     1      23.407  34.025  15.100  0.00  0.00    +0.159 HD
ATOM     15  H   UNL     1      20.841  36.007  12.878  0.00  0.00    +0.156 HD
BRANCH   8  19
ATOM     16  C   UNL     1      17.933  35.162  18.586  0.00  0.00    +0.006 A 
ATOM     17  C   UNL     1      19.608  35.753  18.405  0.00  0.00    +0.039 A 
ATOM     18  C   UNL     1      20.754  35.039  17.280  0.00  0.00    +0.138 A 
ATOM     19  C   UNL     1      20.247  33.647  16.250  0.00  0.00    +0.107 A 
ATOM     20  C   UNL     1      18.341  32.988  16.476  0.00  0.00    +0.138 A 
ATOM     21  C   UNL     1      17.278  33.811  17.672  0.00  0.00    +0.039 A 
ATOM     22  F   UNL     1      17.645  31.980  15.874  0.00  0.00    -0.205 F 
ATOM     23  F   UNL     1      21.980  35.567  17.169  0.00  0.00    -0.205 F 
ENDBRANCH   8  19
ENDBRANCH   1  13
BRANCH   3  24
ATOM     24  O   UNL     1      16.929  32.479  13.525  0.00  0.00    -0.435 OA
BRANCH  24  25
ATOM     25  C   UNL     1      16.603  32.684  12.186  0.00  0.00    +0.239 A 
ATOM     26  C   UNL     1      17.525  32.253  11.235  0.00  0.00    +0.103 A 
ATOM     27  C   UNL     1      17.260  32.511   9.891  0.00  0.00    +0.039 A 
ATOM     28  C   UNL     1      16.093  33.198   9.530  0.00  0.00    +0.074 A 
ATOM     29  C   UNL     1      15.236  33.586  10.550  0.00  0.00    +0.127 A 
ATOM     30  N   UNL     1      15.467  33.351  11.862  0.00  0.00    -0.219 NA
ATOM     31 CL   UNL     1      18.975  31.426  11.659  0.00  0.00    -0.078 Cl
BRANCH  28  32
ATOM     32  C   UNL     1      15.775  33.501   8.098  0.00  0.00    +0.419 C 
ATOM     33  F   UNL     1      14.799  32.693   7.605  0.00  0.00    -0.166 F 
ATOM     34  F   UNL     1      15.346  34.777   7.897  0.00  0.00    -0.166 F 
ATOM     35  F   UNL     1      16.850  33.336   7.281  0.00  0.00    -0.166 F 
ENDBRANCH  28  32
ENDBRANCH  24  25
ENDBRANCH   3  24
TORSDOF 5
ENDMDL
MODEL 5
REMARK minimizedAffinity -9.79440022
REMARK minimizedRMSD -1
REMARK  Name = 
REMARK  5 active torsions:
REMARK  status: ('A' for Active; 'I' for Inactive)
REMARK    1  A    between atoms: C_4  and  C_8
REMARK    2  A    between atoms: N_13  and  C_14
REMARK    3  A    between atoms: C_16  and  O_21
REMARK    4  A    between atoms: O_21  and  C_22
REMARK    5  A    between atoms: C_25  and  C_28
REMARK                            x       y       z     vdW  Elec       q    Type
REMARK                         _______ _______ _______ _____ _____    ______ ____
ROOT
ATOM      1  C   UNL     1      21.904  34.318  17.639  0.00  0.00    +0.038 A 
ATOM      2  C   UNL     1      20.711  35.470  17.062  0.00  0.00    +0.071 A 
ATOM      3  C   UNL     1      19.987  35.213  15.432  0.00  0.00    +0.150 A 
ATOM      4  C   UNL     1      20.590  33.580  14.382  0.00  0.00    +0.083 A 
ATOM      5  C   UNL     1      21.836  32.509  15.130  0.00  0.00    +0.025 A 
ATOM      6  C   UNL     1      22.445  32.900  16.721  0.00  0.00    +0.025 A 
ATOM      7 CL   UNL     1      20.270  32.690  12.784  0.00  0.00    -0.080 Cl
ENDROOT
BRANCH   1  13
ATOM      8  C   UNL     1      23.300  36.481  17.932  0.00  0.00    +0.257 C 
ATOM      9  O   UNL     1      23.235  37.709  17.996  0.00  0.00    -0.270 OA
ATOM     10  N   UNL     1      23.627  35.747  19.069  0.00  0.00    -0.236 N 
ATOM     11  C   UNL     1      22.830  34.846  19.745  0.00  0.00    +0.310 C 
ATOM     12  O   UNL     1      22.860  34.770  20.970  0.00  0.00    -0.252 OA
ATOM     13  N   UNL     1      21.915  34.146  19.014  0.00  0.00    -0.269 N 
ATOM     14  H   UNL     1      24.130  36.308  19.746  0.00  0.00    +0.159 HD
ATOM     15  H   UNL     1      21.104  33.809  19.517  0.00  0.00    +0.156 HD
BRANCH   8  19
ATOM     16  C   UNL     1      23.955  33.650  13.719  0.00  0.00    +0.006 A 
ATOM     17  C   UNL     1      24.843  33.526  15.263  0.00  0.00    +0.039 A 
ATOM     18  C   UNL     1      24.501  34.556  16.645  0.00  0.00    +0.138 A 
ATOM     19  C   UNL     1      23.202  35.803  16.530  0.00  0.00    +0.107 A 
ATOM     20  C   UNL     1      22.210  35.932  14.765  0.00  0.00    +0.138 A 
ATOM     21  C   UNL     1      22.671  34.816  13.431  0.00  0.00    +0.039 A 
ATOM     22  F   UNL     1      21.198  36.745  14.343  0.00  0.00    -0.205 F 
ATOM     23  F   UNL     1      25.179  34.371  17.785  0.00  0.00    -0.205 F 
ENDBRANCH   8  19
ENDBRANCH   1  13
BRANCH   3  24
ATOM     24  O   UNL     1      18.951  36.171  15.279  0.00  0.00    -0.435 OA
BRANCH  24  25
ATOM     25  C   UNL     1      17.620  35.760  15.296  0.00  0.00    +0.239 A 
ATOM     26  C   UNL     1      16.889  36.023  16.453  0.00  0.00    +0.103 A 
ATOM     27  C   UNL     1      15.577  35.558  16.527  0.00  0.00    +0.039 A 
ATOM     28  C   UNL     1      15.032  34.837  15.457  0.00  0.00    +0.074 A 
ATOM     29  C   UNL     1      15.839  34.626  14.348  0.00  0.00    +0.127 A 
ATOM     30  N   UNL     1      17.115  35.064  14.247  0.00  0.00    -0.219 NA
ATOM     31 CL   UNL     1      17.549  36.890  17.787  0.00  0.00    -0.078 Cl
BRANCH  28  32
ATOM     32  C   UNL     1      13.629  34.313  15.500  0.00  0.00    +0.419 C 
ATOM     33  F   UNL     1      13.485  33.302  16.398  0.00  0.00    -0.166 F 
ATOM     34  F   UNL     1      12.709  35.255  15.841  0.00  0.00    -0.166 F 
ATOM     35  F   UNL     1      13.226  33.813  14.301  0.00  0.00    -0.166 F 
ENDBRANCH  28  32
ENDBRANCH  24  25
ENDBRANCH   3  24
TORSDOF 5
ENDMDL
