REMARK  Name = 
REMARK  2 active torsions:
REMARK  status: ('A' for Active; 'I' for Inactive)
REMARK    1  A    between atoms: C_4  and  C_7
REMARK    2  A    between atoms: C_7  and  N_8
REMARK                            x       y       z     vdW  Elec       q    Type
REMARK                         _______ _______ _______ _____ _____    ______ ____
ROOT
ATOM      1  N   UNL     1      -2.611   2.001   0.679  0.00  0.00    -0.323 N 
ATOM      2  C   UNL     1      -3.694   2.842   0.719  0.00  0.00    +0.148 A 
ATOM      3  N   UNL     1      -4.621   2.834  -0.262  0.00  0.00    -0.219 NA
ATOM      4  C   UNL     1      -5.666   3.686  -0.184  0.00  0.00    +0.225 A 
ATOM      5  N   UNL     1      -5.931   4.584   0.771  0.00  0.00    -0.214 NA
ATOM      6  C   UNL     1      -5.002   4.584   1.742  0.00  0.00    +0.183 A 
ATOM      7  C   UNL     1      -3.902   3.746   1.745  0.00  0.00    +0.125 A 
ATOM      8  N   UNL     1      -3.229   4.072   2.891  0.00  0.00    -0.340 N 
ATOM      9  C   UNL     1      -3.929   5.066   3.517  0.00  0.00    +0.199 A 
ATOM     10  N   UNL     1      -5.009   5.397   2.845  0.00  0.00    -0.216 NA
ATOM     11  H   UNL     1      -1.927   1.981   1.417  0.00  0.00    +0.148 HD
ATOM     12  H   UNL     1      -2.368   3.656   3.215  0.00  0.00    +0.167 HD
ENDROOT
BRANCH   1  13
ATOM     13  C   UNL     1      -2.449   1.091  -0.433  0.00  0.00    +0.138 C 
BRANCH  13  17
ATOM     14  C   UNL     1       1.376  -0.864  -0.019  0.00  0.00    +0.000 A 
ATOM     15  C   UNL     1       1.303   0.422  -0.550  0.00  0.00    +0.000 A 
ATOM     16  C   UNL     1       0.064   1.050  -0.690  0.00  0.00    +0.005 A 
ATOM     17  C   UNL     1      -1.115   0.393  -0.304  0.00  0.00    -0.030 A 
ATOM     18  C   UNL     1      -1.028  -0.896   0.240  0.00  0.00    +0.005 A 
ATOM     19  C   UNL     1       0.212  -1.522   0.377  0.00  0.00    +0.000 A 
ENDBRANCH  13  17
ENDBRANCH   1  13
TORSDOF 2
