REMARK  Name = =
REMARK  6 active torsions:
REMARK  status: ('A' for Active; 'I' for Inactive)
REMARK    1  A    between atoms: C_1  and  N_23
REMARK    2  A    between atoms: C_2  and  O_32
REMARK    3  A    between atoms: N_11  and  C_13
REMARK    4  A    between atoms: C_21  and  C_26
REMARK    5  A    between atoms: C_25  and  C_27
REMARK    6  A    between atoms: C_27  and  N_29
REMARK                            x       y       z     vdW  Elec       q    Type
REMARK                         _______ _______ _______ _____ _____    ______ ____
ROOT
ATOM      1  C   UNL     1      20.199  33.346  13.373  0.00  0.00    +0.077 C 
ATOM      2  C   UNL     1      19.470  33.510  14.517  0.00  0.00    +0.144 C 
ATOM      3  C   UNL     1      18.090  33.623  14.512  0.00  0.00    +0.076 C 
ATOM      4  C   UNL     1      17.378  33.448  13.344  0.00  0.00    +0.080 C 
ATOM      5  C   UNL     1      18.078  33.165  12.158  0.00  0.00    +0.042 C 
ATOM      6  C   UNL     1      19.505  33.189  12.171  0.00  0.00    +0.040 C 
ATOM      7  C   UNL     1      17.258  32.808  11.066  0.00  0.00    +0.134 C 
ATOM      8  N   UNL     1      15.914  32.867  11.144  0.00  0.00    -0.220 NA
ATOM      9  C   UNL     1      15.376  33.221  12.311  0.00  0.00    +0.223 C 
ATOM     10  N   UNL     1      16.051  33.493  13.427  0.00  0.00    -0.235 NA
ATOM     11  N   UNL     1      17.841  32.292   9.884  0.00  0.00    -0.299 N 
ATOM     12  H   UNL     1      18.726  31.831  10.041  0.00  0.00    +0.154 HD
ENDROOT
BRANCH  11  13
ATOM     13  C   UNL     1      17.191  31.845   8.712  0.00  0.00    +0.034 C 
ATOM     14  C   UNL     1      17.927  31.123   7.759  0.00  0.00    +0.046 C 
ATOM     15  C   UNL     1      17.299  30.581   6.635  0.00  0.00    +0.078 C 
ATOM     16  C   UNL     1      15.934  30.768   6.443  0.00  0.00    +0.142 C 
ATOM     17  C   UNL     1      15.192  31.499   7.361  0.00  0.00    +0.041 C 
ATOM     18  C   UNL     1      15.820  32.035   8.489  0.00  0.00    +0.026 C 
ATOM     19  F   UNL     1      15.311  30.244   5.378  0.00  0.00    -0.204 F 
ATOM     20 CL   UNL     1      18.228  29.663   5.512  0.00  0.00    -0.081 Cl
ENDBRANCH  11  13
BRANCH   1  21
ATOM     21  N   UNL     1      21.690  33.190  13.417  0.00  0.00    -0.279 NA
ATOM     22  H   UNL     1      21.805  32.321  12.855  0.00  0.00    +0.155 HD
ENDBRANCH   1  21
BRANCH   2  23
ATOM     23  O   UNL     1      20.139  33.463  15.675  0.00  0.00    -0.485 OA
ATOM     24  C   UNL     1      19.836  34.687  16.342  0.00  0.00    +0.201 C 
ENDBRANCH   2  23
TORSDOF 3
REMARK  Name = =
REMARK  6 active torsions:
REMARK  status: ('A' for Active; 'I' for Inactive)
REMARK    1  A    between atoms: C_1  and  N_23
REMARK    2  A    between atoms: C_2  and  O_32
REMARK    3  A    between atoms: N_11  and  C_13
REMARK    4  A    between atoms: C_21  and  C_26
REMARK    5  A    between atoms: C_25  and  C_27
REMARK    6  A    between atoms: C_27  and  N_29
REMARK                            x       y       z     vdW  Elec       q    Type
REMARK                         _______ _______ _______ _____ _____    ______ ____
ROOT
ATOM      1  C   UNL     1      23.836  34.036  18.518  0.00  0.00    +0.159 C 
ENDROOT
BRANCH   1   3
ATOM      2  C   UNL     1      25.180  32.846  20.329  0.00  0.00    +0.190 C 
ATOM      3  N   UNL     1      23.853  33.008  19.631  0.00  0.00    +0.234 N 
ATOM      4  C   UNL     1      22.761  33.279  20.632  0.00  0.00    +0.190 C 
ATOM      5  H   UNL     1      23.637  32.101  19.196  0.00  0.00    +0.203 HD
ENDBRANCH   1   3
BRANCH   1   6
ATOM      6  C   UNL     1      23.402  33.457  17.211  0.00  0.00    +0.028 C 
ATOM      7  C   UNL     1      23.729  33.914  15.979  0.00  0.00    +0.068 C 
BRANCH   7   8
ATOM      8  C   UNL     1      23.382  33.491  14.359  0.00  0.00    +0.241 C 
ATOM      9  O   UNL     1      24.565  33.353  13.938  0.00  0.00    -0.271 OA
ENDBRANCH   7   8
ENDBRANCH   1   6
TORSDOF 3
REMARK  Name = =
REMARK  6 active torsions:
REMARK  status: ('A' for Active; 'I' for Inactive)
REMARK    1  A    between atoms: C_1  and  N_23
REMARK    2  A    between atoms: C_2  and  O_32
REMARK    3  A    between atoms: N_11  and  C_13
REMARK    4  A    between atoms: C_21  and  C_26
REMARK    5  A    between atoms: C_25  and  C_27
REMARK    6  A    between atoms: C_27  and  N_29
REMARK                            x       y       z     vdW  Elec       q    Type
REMARK                         _______ _______ _______ _____ _____    ______ ____
ROOT
ATOM      1  C   UNL     1      20.919  36.263  15.725  0.00  0.00    +0.075 C 
ENDROOT
TORSDOF 0
REMARK  Name = =
REMARK  6 active torsions:
REMARK  status: ('A' for Active; 'I' for Inactive)
REMARK    1  A    between atoms: C_1  and  N_23
REMARK    2  A    between atoms: C_2  and  O_32
REMARK    3  A    between atoms: N_11  and  C_13
REMARK    4  A    between atoms: C_21  and  C_26
REMARK    5  A    between atoms: C_25  and  C_27
REMARK    6  A    between atoms: C_27  and  N_29
REMARK                            x       y       z     vdW  Elec       q    Type
REMARK                         _______ _______ _______ _____ _____    ______ ____
ROOT
ATOM      1  C   UNL     1      21.735  37.141  17.324  0.00  0.00    +0.163 C 
ENDROOT
TORSDOF 0
REMARK  Name = =
REMARK  6 active torsions:
REMARK  status: ('A' for Active; 'I' for Inactive)
REMARK    1  A    between atoms: C_1  and  N_23
REMARK    2  A    between atoms: C_2  and  O_32
REMARK    3  A    between atoms: N_11  and  C_13
REMARK    4  A    between atoms: C_21  and  C_26
REMARK    5  A    between atoms: C_25  and  C_27
REMARK    6  A    between atoms: C_27  and  N_29
REMARK                            x       y       z     vdW  Elec       q    Type
REMARK                         _______ _______ _______ _____ _____    ______ ____
ROOT
ATOM      1  O   UNL     1      21.050  36.216  18.888  0.00  0.00    -0.376 OA
ENDROOT
TORSDOF 0
REMARK  Name = =
REMARK  6 active torsions:
REMARK  status: ('A' for Active; 'I' for Inactive)
REMARK    1  A    between atoms: C_1  and  N_23
REMARK    2  A    between atoms: C_2  and  O_32
REMARK    3  A    between atoms: N_11  and  C_13
REMARK    4  A    between atoms: C_21  and  C_26
REMARK    5  A    between atoms: C_25  and  C_27
REMARK    6  A    between atoms: C_27  and  N_29
REMARK                            x       y       z     vdW  Elec       q    Type
REMARK                         _______ _______ _______ _____ _____    ______ ____
ROOT
ATOM      1  C   UNL     1      19.945  34.682  18.409  0.00  0.00    +0.204 C 
ENDROOT
TORSDOF 0
