MODEL 1
REMARK minimizedAffinity -9.07450867
REMARK minimizedRMSD -1
REMARK  Name = 
REMARK  7 active torsions:
REMARK  status: ('A' for Active; 'I' for Inactive)
REMARK    1  A    between atoms: C_1  and  O_2
REMARK    2  A    between atoms: O_2  and  C_3
REMARK    3  A    between atoms: C_4  and  N_22
REMARK    4  A    between atoms: N_13  and  C_14
REMARK    5  A    between atoms: C_23  and  C_25
REMARK    6  A    between atoms: C_26  and  C_27
REMARK    7  A    between atoms: C_27  and  N_28
REMARK                            x       y       z     vdW  Elec       q    Type
REMARK                         _______ _______ _______ _____ _____    ______ ____
ROOT
ATOM      1  C   UNL     1      20.437  33.117  16.913  0.00  0.00    +0.143 A 
ATOM      2  C   UNL     1      19.087  33.193  16.534  0.00  0.00    +0.077 A 
ATOM      3  C   UNL     1      18.747  32.989  15.199  0.00  0.00    +0.040 A 
ATOM      4  C   UNL     1      19.745  32.805  14.210  0.00  0.00    +0.042 A 
ATOM      5  C   UNL     1      21.094  32.815  14.583  0.00  0.00    +0.080 A 
ATOM      6  C   UNL     1      21.417  32.946  15.930  0.00  0.00    +0.076 A 
ATOM      7  N   UNL     1      22.079  32.700  13.693  0.00  0.00    -0.235 NA
ATOM      8  C   UNL     1      21.728  32.580  12.408  0.00  0.00    +0.223 A 
ATOM      9  N   UNL     1      20.478  32.556  11.934  0.00  0.00    -0.220 NA
ATOM     10  C   UNL     1      19.488  32.635  12.836  0.00  0.00    +0.134 A 
ATOM     11  N   UNL     1      18.143  32.542  12.399  0.00  0.00    -0.299 N 
ATOM     12  H   UNL     1      17.659  31.814  12.915  0.00  0.00    +0.154 HD
ENDROOT
BRANCH  11  13
ATOM     13  C   UNL     1      17.568  32.832  11.148  0.00  0.00    +0.034 A 
ATOM     14  C   UNL     1      17.685  31.884  10.118  0.00  0.00    +0.046 A 
ATOM     15  C   UNL     1      17.048  32.076   8.889  0.00  0.00    +0.078 A 
ATOM     16  C   UNL     1      16.282  33.216   8.676  0.00  0.00    +0.142 A 
ATOM     17  C   UNL     1      16.142  34.162   9.683  0.00  0.00    +0.041 A 
ATOM     18  C   UNL     1      16.772  33.962  10.916  0.00  0.00    +0.026 A 
ATOM     19  F   UNL     1      15.643  33.409   7.514  0.00  0.00    -0.204 F 
ATOM     20 CL   UNL     1      17.183  30.865   7.674  0.00  0.00    -0.081 Cl
ENDBRANCH  11  13
BRANCH   2  21
ATOM     21  N   UNL     1      18.128  33.420  17.542  0.00  0.00    -0.279 N 
ATOM     22  C   UNL     1      17.450  34.542  17.920  0.00  0.00    +0.241 C 
ATOM     23  O   UNL     1      16.457  34.480  18.638  0.00  0.00    -0.271 OA
ATOM     24  H   UNL     1      17.899  32.600  18.101  0.00  0.00    +0.155 HD
BRANCH  22  25
ATOM     25  C   UNL     1      18.022  35.868  17.556  0.00  0.00    +0.068 C 
ATOM     26  C   UNL     1      18.847  36.497  18.409  0.00  0.00    +0.028 C 
BRANCH  26  27
ATOM     27  C   UNL     1      19.610  37.773  18.276  0.00  0.00    +0.160 C 
BRANCH  27  28
ATOM     28  N   UNL     1      21.077  37.754  17.924  0.00  0.00    +0.238 N 
ATOM     29  C   UNL     1      21.994  38.126  19.064  0.00  0.00    +0.131 C 
ATOM     30  C   UNL     1      23.398  38.359  18.520  0.00  0.00    +0.051 C 
ATOM     31  C   UNL     1      23.904  37.156  17.730  0.00  0.00    +0.010 C 
ATOM     32  C   UNL     1      22.933  36.778  16.616  0.00  0.00    +0.051 C 
ATOM     33  C   UNL     1      21.526  36.541  17.149  0.00  0.00    +0.131 C 
ATOM     34  H   UNL     1      21.161  38.534  17.257  0.00  0.00    +0.204 HD
ENDBRANCH  27  28
ENDBRANCH  26  27
ENDBRANCH  22  25
ENDBRANCH   2  21
BRANCH   1  36
ATOM     35  C   UNL     1      22.040  33.218  18.680  0.00  0.00    +0.277 C 
ATOM     36  O   UNL     1      20.681  33.262  18.256  0.00  0.00    -0.493 OA
ENDBRANCH   1  36
TORSDOF 6
ENDMDL
MODEL 2
REMARK minimizedAffinity -9.0515337
REMARK minimizedRMSD -1
REMARK  Name = 
REMARK  7 active torsions:
REMARK  status: ('A' for Active; 'I' for Inactive)
REMARK    1  A    between atoms: C_1  and  O_2
REMARK    2  A    between atoms: O_2  and  C_3
REMARK    3  A    between atoms: C_4  and  N_22
REMARK    4  A    between atoms: N_13  and  C_14
REMARK    5  A    between atoms: C_23  and  C_25
REMARK    6  A    between atoms: C_26  and  C_27
REMARK    7  A    between atoms: C_27  and  N_28
REMARK                            x       y       z     vdW  Elec       q    Type
REMARK                         _______ _______ _______ _____ _____    ______ ____
ROOT
ATOM      1  C   UNL     1      20.455  33.103  16.862  0.00  0.00    +0.143 A 
ATOM      2  C   UNL     1      19.104  33.171  16.489  0.00  0.00    +0.077 A 
ATOM      3  C   UNL     1      18.760  32.970  15.154  0.00  0.00    +0.040 A 
ATOM      4  C   UNL     1      19.754  32.799  14.161  0.00  0.00    +0.042 A 
ATOM      5  C   UNL     1      21.105  32.817  14.529  0.00  0.00    +0.080 A 
ATOM      6  C   UNL     1      21.433  32.944  15.875  0.00  0.00    +0.076 A 
ATOM      7  N   UNL     1      22.088  32.714  13.634  0.00  0.00    -0.235 NA
ATOM      8  C   UNL     1      21.732  32.598  12.349  0.00  0.00    +0.223 A 
ATOM      9  N   UNL     1      20.480  32.567  11.880  0.00  0.00    -0.220 NA
ATOM     10  C   UNL     1      19.494  32.633  12.787  0.00  0.00    +0.134 A 
ATOM     11  N   UNL     1      18.147  32.532  12.355  0.00  0.00    -0.299 N 
ATOM     12  H   UNL     1      17.671  31.798  12.869  0.00  0.00    +0.154 HD
ENDROOT
BRANCH  11  13
ATOM     13  C   UNL     1      17.565  32.824  11.108  0.00  0.00    +0.034 A 
ATOM     14  C   UNL     1      17.678  31.878  10.075  0.00  0.00    +0.046 A 
ATOM     15  C   UNL     1      17.034  32.072   8.850  0.00  0.00    +0.078 A 
ATOM     16  C   UNL     1      16.265  33.211   8.643  0.00  0.00    +0.142 A 
ATOM     17  C   UNL     1      16.128  34.154   9.653  0.00  0.00    +0.041 A 
ATOM     18  C   UNL     1      16.765  33.952  10.882  0.00  0.00    +0.026 A 
ATOM     19  F   UNL     1      15.619  33.404   7.485  0.00  0.00    -0.204 F 
ATOM     20 CL   UNL     1      17.166  30.864   7.631  0.00  0.00    -0.081 Cl
ENDBRANCH  11  13
BRANCH   2  21
ATOM     21  N   UNL     1      18.147  33.386  17.502  0.00  0.00    -0.279 N 
ATOM     22  C   UNL     1      17.465  34.501  17.891  0.00  0.00    +0.241 C 
ATOM     23  O   UNL     1      16.475  34.430  18.612  0.00  0.00    -0.271 OA
ATOM     24  H   UNL     1      17.924  32.560  18.056  0.00  0.00    +0.155 HD
BRANCH  22  25
ATOM     25  C   UNL     1      18.030  35.833  17.535  0.00  0.00    +0.068 C 
ATOM     26  C   UNL     1      19.038  36.347  18.259  0.00  0.00    +0.028 C 
BRANCH  26  27
ATOM     27  C   UNL     1      19.830  37.599  18.087  0.00  0.00    +0.160 C 
BRANCH  27  28
ATOM     28  N   UNL     1      19.697  38.730  19.077  0.00  0.00    +0.238 N 
ATOM     29  C   UNL     1      18.273  39.075  19.439  0.00  0.00    +0.131 C 
ATOM     30  C   UNL     1      18.255  40.397  20.196  0.00  0.00    +0.051 C 
ATOM     31  C   UNL     1      19.176  40.363  21.411  0.00  0.00    +0.010 C 
ATOM     32  C   UNL     1      20.596  39.967  21.019  0.00  0.00    +0.051 C 
ATOM     33  C   UNL     1      20.625  38.645  20.263  0.00  0.00    +0.131 C 
ATOM     34  H   UNL     1      20.033  39.543  18.542  0.00  0.00    +0.204 HD
ENDBRANCH  27  28
ENDBRANCH  26  27
ENDBRANCH  22  25
ENDBRANCH   2  21
BRANCH   1  36
ATOM     35  C   UNL     1      21.917  33.890  18.579  0.00  0.00    +0.277 C 
ATOM     36  O   UNL     1      20.704  33.243  18.205  0.00  0.00    -0.493 OA
ENDBRANCH   1  36
TORSDOF 6
ENDMDL
MODEL 3
REMARK minimizedAffinity -8.90709019
REMARK minimizedRMSD -1
REMARK  Name = 
REMARK  7 active torsions:
REMARK  status: ('A' for Active; 'I' for Inactive)
REMARK    1  A    between atoms: C_1  and  O_2
REMARK    2  A    between atoms: O_2  and  C_3
REMARK    3  A    between atoms: C_4  and  N_22
REMARK    4  A    between atoms: N_13  and  C_14
REMARK    5  A    between atoms: C_23  and  C_25
REMARK    6  A    between atoms: C_26  and  C_27
REMARK    7  A    between atoms: C_27  and  N_28
REMARK                            x       y       z     vdW  Elec       q    Type
REMARK                         _______ _______ _______ _____ _____    ______ ____
ROOT
ATOM      1  C   UNL     1      22.500  35.815  15.868  0.00  0.00    +0.143 A 
ATOM      2  C   UNL     1      21.128  36.032  15.670  0.00  0.00    +0.077 A 
ATOM      3  C   UNL     1      20.431  35.205  14.792  0.00  0.00    +0.040 A 
ATOM      4  C   UNL     1      21.104  34.221  14.027  0.00  0.00    +0.042 A 
ATOM      5  C   UNL     1      22.488  34.067  14.167  0.00  0.00    +0.080 A 
ATOM      6  C   UNL     1      23.159  34.848  15.102  0.00  0.00    +0.076 A 
ATOM      7  N   UNL     1      23.184  33.195  13.438  0.00  0.00    -0.235 NA
ATOM      8  C   UNL     1      22.503  32.464  12.547  0.00  0.00    +0.223 A 
ATOM      9  N   UNL     1      21.185  32.523  12.327  0.00  0.00    -0.220 NA
ATOM     10  C   UNL     1      20.483  33.374  13.088  0.00  0.00    +0.134 A 
ATOM     11  N   UNL     1      19.073  33.427  12.949  0.00  0.00    -0.299 N 
ATOM     12  H   UNL     1      18.629  33.295  13.852  0.00  0.00    +0.154 HD
ENDROOT
BRANCH  11  13
ATOM     13  C   UNL     1      18.251  33.095  11.857  0.00  0.00    +0.034 A 
ATOM     14  C   UNL     1      17.411  34.085  11.321  0.00  0.00    +0.046 A 
ATOM     15  C   UNL     1      16.650  33.838  10.175  0.00  0.00    +0.078 A 
ATOM     16  C   UNL     1      16.723  32.600   9.547  0.00  0.00    +0.142 A 
ATOM     17  C   UNL     1      17.556  31.610  10.050  0.00  0.00    +0.041 A 
ATOM     18  C   UNL     1      18.325  31.863  11.191  0.00  0.00    +0.026 A 
ATOM     19  F   UNL     1      16.021  32.351   8.433  0.00  0.00    -0.204 F 
ATOM     20 CL   UNL     1      15.670  35.097   9.531  0.00  0.00    -0.081 Cl
ENDBRANCH  11  13
BRANCH   2  21
ATOM     21  N   UNL     1      20.503  37.051  16.419  0.00  0.00    -0.279 N 
ATOM     22  C   UNL     1      19.627  37.009  17.463  0.00  0.00    +0.241 C 
ATOM     23  O   UNL     1      19.408  37.997  18.158  0.00  0.00    -0.271 OA
ATOM     24  H   UNL     1      20.740  37.997  16.126  0.00  0.00    +0.155 HD
BRANCH  22  25
ATOM     25  C   UNL     1      18.828  35.768  17.664  0.00  0.00    +0.068 C 
ATOM     26  C   UNL     1      17.488  35.838  17.719  0.00  0.00    +0.028 C 
BRANCH  26  27
ATOM     27  C   UNL     1      16.453  34.769  17.834  0.00  0.00    +0.160 C 
BRANCH  27  28
ATOM     28  N   UNL     1      15.633  34.366  16.633  0.00  0.00    +0.238 N 
ATOM     29  C   UNL     1      14.321  35.101  16.502  0.00  0.00    +0.131 C 
ATOM     30  C   UNL     1      13.466  34.412  15.446  0.00  0.00    +0.051 C 
ATOM     31  C   UNL     1      14.203  34.287  14.116  0.00  0.00    +0.010 C 
ATOM     32  C   UNL     1      15.544  33.582  14.291  0.00  0.00    +0.051 C 
ATOM     33  C   UNL     1      16.408  34.264  15.343  0.00  0.00    +0.131 C 
ATOM     34  H   UNL     1      15.367  33.396  16.853  0.00  0.00    +0.204 HD
ENDBRANCH  27  28
ENDBRANCH  26  27
ENDBRANCH  22  25
ENDBRANCH   2  21
BRANCH   1  36
ATOM     35  C   UNL     1      24.209  36.093  17.513  0.00  0.00    +0.277 C 
ATOM     36  O   UNL     1      23.097  36.627  16.800  0.00  0.00    -0.493 OA
ENDBRANCH   1  36
TORSDOF 6
ENDMDL
MODEL 4
REMARK minimizedAffinity -8.67109871
REMARK minimizedRMSD -1
REMARK  Name = 
REMARK  7 active torsions:
REMARK  status: ('A' for Active; 'I' for Inactive)
REMARK    1  A    between atoms: C_1  and  O_2
REMARK    2  A    between atoms: O_2  and  C_3
REMARK    3  A    between atoms: C_4  and  N_22
REMARK    4  A    between atoms: N_13  and  C_14
REMARK    5  A    between atoms: C_23  and  C_25
REMARK    6  A    between atoms: C_26  and  C_27
REMARK    7  A    between atoms: C_27  and  N_28
REMARK                            x       y       z     vdW  Elec       q    Type
REMARK                         _______ _______ _______ _____ _____    ______ ____
ROOT
ATOM      1  C   UNL     1      17.335  33.715  17.401  0.00  0.00    +0.143 A 
ATOM      2  C   UNL     1      18.278  33.318  16.440  0.00  0.00    +0.077 A 
ATOM      3  C   UNL     1      17.938  33.384  15.091  0.00  0.00    +0.040 A 
ATOM      4  C   UNL     1      16.632  33.749  14.684  0.00  0.00    +0.042 A 
ATOM      5  C   UNL     1      15.671  34.062  15.652  0.00  0.00    +0.080 A 
ATOM      6  C   UNL     1      16.044  34.064  16.992  0.00  0.00    +0.076 A 
ATOM      7  N   UNL     1      14.411  34.361  15.334  0.00  0.00    -0.235 NA
ATOM      8  C   UNL     1      14.091  34.344  14.035  0.00  0.00    +0.223 A 
ATOM      9  N   UNL     1      14.920  34.063  13.024  0.00  0.00    -0.220 NA
ATOM     10  C   UNL     1      16.195  33.800  13.346  0.00  0.00    +0.134 A 
ATOM     11  N   UNL     1      17.136  33.566  12.311  0.00  0.00    -0.299 N 
ATOM     12  H   UNL     1      17.933  34.185  12.419  0.00  0.00    +0.154 HD
ENDROOT
BRANCH  11  13
ATOM     13  C   UNL     1      16.950  33.101  10.996  0.00  0.00    +0.034 A 
ATOM     14  C   UNL     1      16.182  33.876  10.111  0.00  0.00    +0.046 A 
ATOM     15  C   UNL     1      16.049  33.513   8.769  0.00  0.00    +0.078 A 
ATOM     16  C   UNL     1      16.685  32.373   8.292  0.00  0.00    +0.142 A 
ATOM     17  C   UNL     1      17.460  31.598   9.144  0.00  0.00    +0.041 A 
ATOM     18  C   UNL     1      17.601  31.969  10.486  0.00  0.00    +0.026 A 
ATOM     19  F   UNL     1      16.591  32.020   7.003  0.00  0.00    -0.204 F 
ATOM     20 CL   UNL     1      15.135  34.519   7.713  0.00  0.00    -0.081 Cl
ENDBRANCH  11  13
BRANCH   2  21
ATOM     21  N   UNL     1      19.554  32.921  16.889  0.00  0.00    -0.279 N 
ATOM     22  C   UNL     1      20.625  33.633  17.343  0.00  0.00    +0.241 C 
ATOM     23  O   UNL     1      21.548  33.093  17.945  0.00  0.00    -0.271 OA
ATOM     24  H   UNL     1      19.718  31.915  16.864  0.00  0.00    +0.155 HD
BRANCH  22  25
ATOM     25  C   UNL     1      20.721  35.074  16.975  0.00  0.00    +0.068 C 
ATOM     26  C   UNL     1      21.008  35.986  17.917  0.00  0.00    +0.028 C 
BRANCH  26  27
ATOM     27  C   UNL     1      21.236  37.458  17.821  0.00  0.00    +0.160 C 
BRANCH  27  28
ATOM     28  N   UNL     1      20.547  38.403  18.775  0.00  0.00    +0.238 N 
ATOM     29  C   UNL     1      19.053  38.210  18.868  0.00  0.00    +0.131 C 
ATOM     30  C   UNL     1      18.444  39.390  19.615  0.00  0.00    +0.051 C 
ATOM     31  C   UNL     1      19.095  39.591  20.980  0.00  0.00    +0.010 C 
ATOM     32  C   UNL     1      20.608  39.736  20.855  0.00  0.00    +0.051 C 
ATOM     33  C   UNL     1      21.228  38.561  20.111  0.00  0.00    +0.131 C 
ATOM     34  H   UNL     1      20.664  39.316  18.315  0.00  0.00    +0.204 HD
ENDBRANCH  27  28
ENDBRANCH  26  27
ENDBRANCH  22  25
ENDBRANCH   2  21
BRANCH   1  36
ATOM     35  C   UNL     1      17.790  34.921  19.412  0.00  0.00    +0.277 C 
ATOM     36  O   UNL     1      17.771  33.685  18.702  0.00  0.00    -0.493 OA
ENDBRANCH   1  36
TORSDOF 6
ENDMDL
MODEL 5
REMARK minimizedAffinity -8.57714367
REMARK minimizedRMSD -1
REMARK  Name = 
REMARK  7 active torsions:
REMARK  status: ('A' for Active; 'I' for Inactive)
REMARK    1  A    between atoms: C_1  and  O_2
REMARK    2  A    between atoms: O_2  and  C_3
REMARK    3  A    between atoms: C_4  and  N_22
REMARK    4  A    between atoms: N_13  and  C_14
REMARK    5  A    between atoms: C_23  and  C_25
REMARK    6  A    between atoms: C_26  and  C_27
REMARK    7  A    between atoms: C_27  and  N_28
REMARK                            x       y       z     vdW  Elec       q    Type
REMARK                         _______ _______ _______ _____ _____    ______ ____
ROOT
ATOM      1  C   UNL     1      19.733  32.830  15.358  0.00  0.00    +0.143 A 
ATOM      2  C   UNL     1      20.165  32.831  14.022  0.00  0.00    +0.077 A 
ATOM      3  C   UNL     1      19.275  33.222  13.024  0.00  0.00    +0.040 A 
ATOM      4  C   UNL     1      17.924  33.519  13.325  0.00  0.00    +0.042 A 
ATOM      5  C   UNL     1      17.478  33.434  14.649  0.00  0.00    +0.080 A 
ATOM      6  C   UNL     1      18.394  33.115  15.646  0.00  0.00    +0.076 A 
ATOM      7  N   UNL     1      16.207  33.651  14.988  0.00  0.00    -0.235 NA
ATOM      8  C   UNL     1      15.356  33.951  14.000  0.00  0.00    +0.223 A 
ATOM      9  N   UNL     1      15.665  34.062  12.704  0.00  0.00    -0.220 NA
ATOM     10  C   UNL     1      16.952  33.880  12.372  0.00  0.00    +0.134 A 
ATOM     11  N   UNL     1      17.351  34.056  11.023  0.00  0.00    -0.299 N 
ATOM     12  H   UNL     1      18.121  34.716  10.971  0.00  0.00    +0.154 HD
ENDROOT
BRANCH  11  13
ATOM     13  C   UNL     1      16.611  33.950   9.831  0.00  0.00    +0.034 A 
ATOM     14  C   UNL     1      16.586  32.716   9.162  0.00  0.00    +0.046 A 
ATOM     15  C   UNL     1      15.787  32.528   8.031  0.00  0.00    +0.078 A 
ATOM     16  C   UNL     1      14.998  33.570   7.557  0.00  0.00    +0.142 A 
ATOM     17  C   UNL     1      14.996  34.796   8.210  0.00  0.00    +0.041 A 
ATOM     18  C   UNL     1      15.788  34.978   9.348  0.00  0.00    +0.026 A 
ATOM     19  F   UNL     1      14.206  33.403   6.490  0.00  0.00    -0.204 F 
ATOM     20 CL   UNL     1      15.756  30.984   7.271  0.00  0.00    -0.081 Cl
ENDBRANCH  11  13
BRANCH   2  21
ATOM     21  N   UNL     1      21.506  32.487  13.759  0.00  0.00    -0.279 N 
ATOM     22  C   UNL     1      22.681  33.122  14.032  0.00  0.00    +0.241 C 
ATOM     23  O   UNL     1      23.758  32.536  13.969  0.00  0.00    -0.271 OA
ATOM     24  H   UNL     1      21.627  31.603  13.266  0.00  0.00    +0.155 HD
BRANCH  22  25
ATOM     25  C   UNL     1      22.649  34.591  14.279  0.00  0.00    +0.068 C 
ATOM     26  C   UNL     1      22.816  35.063  15.525  0.00  0.00    +0.028 C 
BRANCH  26  27
ATOM     27  C   UNL     1      22.903  36.460  16.042  0.00  0.00    +0.160 C 
BRANCH  27  28
ATOM     28  N   UNL     1      21.954  36.939  17.113  0.00  0.00    +0.238 N 
ATOM     29  C   UNL     1      20.500  36.649  16.830  0.00  0.00    +0.131 C 
ATOM     30  C   UNL     1      19.635  37.428  17.813  0.00  0.00    +0.051 C 
ATOM     31  C   UNL     1      20.020  37.134  19.260  0.00  0.00    +0.010 C 
ATOM     32  C   UNL     1      21.504  37.392  19.501  0.00  0.00    +0.051 C 
ATOM     33  C   UNL     1      22.379  36.617  18.524  0.00  0.00    +0.131 C 
ATOM     34  H   UNL     1      22.033  37.963  17.046  0.00  0.00    +0.204 HD
ENDBRANCH  27  28
ENDBRANCH  26  27
ENDBRANCH  22  25
ENDBRANCH   2  21
BRANCH   1  36
ATOM     35  C   UNL     1      20.546  33.050  17.592  0.00  0.00    +0.277 C 
ATOM     36  O   UNL     1      20.688  32.499  16.286  0.00  0.00    -0.493 OA
ENDBRANCH   1  36
TORSDOF 6
ENDMDL
