REMARK  Name = =
REMARK  5 active torsions:
REMARK  status: ('A' for Active; 'I' for Inactive)
REMARK    1  A    between atoms: C_1  and  O_23
REMARK    2  A    between atoms: C_2  and  O_24
REMARK    3  A    between atoms: N_11  and  C_13
REMARK    4  A    between atoms: O_24  and  C_25
REMARK    5  A    between atoms: C_31  and  C_33
REMARK                            x       y       z     vdW  Elec       q    Type
REMARK                         _______ _______ _______ _____ _____    ______ ____
ROOT
ATOM      1  C   UNL     1      17.750  35.797  16.488  0.00  0.00    +0.164 C 
ATOM      2  C   UNL     1      18.708  35.412  15.543  0.00  0.00    +0.163 C 
ATOM      3  C   UNL     1      18.344  34.772  14.369  0.00  0.00    +0.062 C 
ATOM      4  C   UNL     1      16.981  34.503  14.114  0.00  0.00    +0.044 C 
ATOM      5  C   UNL     1      16.010  34.893  15.057  0.00  0.00    +0.080 C 
ATOM      6  C   UNL     1      16.411  35.523  16.236  0.00  0.00    +0.078 C 
ATOM      7  N   UNL     1      14.706  34.690  14.859  0.00  0.00    -0.235 NA
ATOM      8  C   UNL     1      14.351  34.098  13.713  0.00  0.00    +0.223 C 
ATOM      9  N   UNL     1      15.177  33.667  12.757  0.00  0.00    -0.220 NA
ATOM     10  C   UNL     1      16.491  33.861  12.959  0.00  0.00    +0.134 C 
ATOM     11  N   UNL     1      17.395  33.381  11.982  0.00  0.00    -0.297 N 
ATOM     12  H   UNL     1      18.196  32.917  12.388  0.00  0.00    +0.154 HD
ENDROOT
BRANCH  11  13
ATOM     13  C   UNL     1      17.105  33.024  10.650  0.00  0.00    +0.070 C 
ATOM     14  C   UNL     1      16.334  33.830   9.792  0.00  0.00    +0.164 C 
ATOM     15  C   UNL     1      16.003  33.412   8.498  0.00  0.00    +0.096 C 
ATOM     16  C   UNL     1      16.438  32.161   8.050  0.00  0.00    +0.062 C 
ATOM     17  C   UNL     1      17.209  31.350   8.886  0.00  0.00    +0.023 C 
ATOM     18  C   UNL     1      17.542  31.780  10.173  0.00  0.00    +0.028 C 
ATOM     19 CL   UNL     1      16.063  31.554   6.475  0.00  0.00    -0.082 Cl
ATOM     20 CL   UNL     1      15.071  34.469   7.493  0.00  0.00    -0.079 Cl
ATOM     21  F   UNL     1      15.954  35.052  10.201  0.00  0.00    -0.202 F 
ENDBRANCH  11  13
BRANCH   1  23
ATOM     22  C   UNL     1      19.124  37.287  19.008  0.00  0.00    +0.277 C 
ATOM     23  O   UNL     1      18.326  36.449  17.558  0.00  0.00    -0.491 OA
ENDBRANCH   1  23
BRANCH   2  24
ATOM     24  O   UNL     1      20.040  35.679  15.760  0.00  0.00    -0.485 OA
BRANCH  24  25
ATOM     25  C   UNL     1      20.790  34.467  15.486  0.00  0.00    +0.177 C 
ATOM     26  C   UNL     1      20.507  33.308  17.025  0.00  0.00    +0.063 C 
ATOM     27  C   UNL     1      21.917  33.162  18.353  0.00  0.00    +0.111 C 
ATOM     28  N   UNL     1      23.615  33.736  17.916  0.00  0.00    -0.298 N 
ATOM     29  C   UNL     1      23.965  34.851  16.480  0.00  0.00    +0.111 C 
ATOM     30  C   UNL     1      22.609  35.048  15.099  0.00  0.00    +0.063 C 
ATOM     31  C   UNL     1      24.593  33.308  18.791  0.00  0.00    +0.239 C 
ATOM     32  O   UNL     1      24.350  32.665  19.809  0.00  0.00    -0.271 OA
BRANCH  31  33
ATOM     33  C   UNL     1      25.994  33.662  18.482  0.00  0.00    +0.060 C 
ATOM     34  C   UNL     1      26.907  32.733  18.169  0.00  0.00    +0.013 C 
ENDBRANCH  31  33
ENDBRANCH  24  25
ENDBRANCH   2  24
TORSDOF 5
