REMARK  Name = =
REMARK  0 active torsions:
REMARK  status: ('A' for Active; 'I' for Inactive)
REMARK                            x       y       z     vdW  Elec       q    Type
REMARK                         _______ _______ _______ _____ _____    ______ ____
ROOT
ATOM      1  C   UNL     1      15.307  34.534   8.277  0.00  0.00    +0.001 C 
ATOM      2  C   UNL     1      15.770  33.543   7.413  0.00  0.00    +0.002 C 
ATOM      3  C   UNL     1      16.659  32.558   7.853  0.00  0.00    +0.026 C 
ATOM      4  C   UNL     1      17.069  32.608   9.191  0.00  0.00    +0.049 A 
ATOM      5  C   UNL     1      16.625  33.589  10.082  0.00  0.00    +0.009 A 
ATOM      6  C   UNL     1      15.725  34.568   9.612  0.00  0.00    +0.010 C 
ATOM      7  C   UNL     1      17.250  33.335  11.341  0.00  0.00    +0.027 A 
ATOM      8  C   UNL     1      18.055  32.216  11.178  0.00  0.00    +0.141 A 
ATOM      9  N   UNL     1      17.929  31.789   9.888  0.00  0.00    -0.339 N 
ATOM     10  N   UNL     1      18.838  31.627  12.100  0.00  0.00    -0.215 NA
ATOM     11  C   UNL     1      18.801  32.222  13.306  0.00  0.00    +0.118 C 
ATOM     12  C   UNL     1      18.045  33.355  13.598  0.00  0.00    +0.044 C 
ATOM     13  C   UNL     1      17.242  33.933  12.610  0.00  0.00    +0.015 C 
ATOM     14  N   UNL     1      19.628  31.682  14.276  0.00  0.00    -0.343 N 
ATOM     15  H   UNL     1      18.415  30.990   9.515  0.00  0.00    +0.167 HD
ATOM     16  H   UNL     1      20.132  30.872  13.934  0.00  0.00    +0.144 HD
ATOM     17  H   UNL     1      19.269  31.633  15.217  0.00  0.00    +0.144 HD
ENDROOT
TORSDOF 0
