REMARK  Name = 
REMARK  7 active torsions:
REMARK  status: ('A' for Active; 'I' for Inactive)
REMARK    1  A    between atoms: C_1  and  O_2
REMARK    2  A    between atoms: O_2  and  C_3
REMARK    3  A    between atoms: C_4  and  N_22
REMARK    4  A    between atoms: N_13  and  C_14
REMARK    5  A    between atoms: C_23  and  C_25
REMARK    6  A    between atoms: C_26  and  C_27
REMARK    7  A    between atoms: C_27  and  N_28
REMARK                            x       y       z     vdW  Elec       q    Type
REMARK                         _______ _______ _______ _____ _____    ______ ____
ROOT
ATOM      1  C   UNL     1       0.705   1.923  -1.340  0.00  0.00    +0.143 A 
ATOM      2  C   UNL     1       1.936   2.426  -1.784  0.00  0.00    +0.077 A 
ATOM      3  C   UNL     1       1.950   3.548  -2.610  0.00  0.00    +0.040 A 
ATOM      4  C   UNL     1       0.746   4.124  -3.082  0.00  0.00    +0.042 A 
ATOM      5  C   UNL     1      -0.479   3.566  -2.702  0.00  0.00    +0.080 A 
ATOM      6  C   UNL     1      -0.482   2.490  -1.819  0.00  0.00    +0.076 A 
ATOM      7  N   UNL     1      -1.644   4.032  -3.155  0.00  0.00    -0.235 NA
ATOM      8  C   UNL     1      -1.598   5.064  -4.005  0.00  0.00    +0.223 A 
ATOM      9  N   UNL     1      -0.491   5.678  -4.437  0.00  0.00    -0.220 NA
ATOM     10  C   UNL     1       0.676   5.230  -3.950  0.00  0.00    +0.134 A 
ATOM     11  N   UNL     1       1.877   5.890  -4.315  0.00  0.00    -0.299 N 
ATOM     12  H   UNL     1       2.396   6.154  -3.483  0.00  0.00    +0.154 HD
ENDROOT
BRANCH  11  13
ATOM     13  C   UNL     1       2.187   6.665  -5.447  0.00  0.00    +0.034 A 
ATOM     14  C   UNL     1       3.383   7.402  -5.451  0.00  0.00    +0.046 A 
ATOM     15  C   UNL     1       3.784   8.114  -6.585  0.00  0.00    +0.078 A 
ATOM     16  C   UNL     1       2.998   8.094  -7.730  0.00  0.00    +0.142 A 
ATOM     17  C   UNL     1       1.819   7.360  -7.756  0.00  0.00    +0.041 A 
ATOM     18  C   UNL     1       1.425   6.640  -6.624  0.00  0.00    +0.026 A 
ATOM     19  F   UNL     1       3.376   8.752  -8.835  0.00  0.00    -0.204 F 
ATOM     20 CL   UNL     1       5.277   8.969  -6.554  0.00  0.00    -0.081 Cl
ENDBRANCH  11  13
BRANCH   2  21
ATOM     21  N   UNL     1       3.114   1.801  -1.327  0.00  0.00    -0.279 N 
ATOM     22  C   UNL     1       4.391   1.807  -1.807  0.00  0.00    +0.241 C 
ATOM     23  O   UNL     1       5.341   1.435  -1.125  0.00  0.00    -0.271 OA
ATOM     24  H   UNL     1       2.997   1.236  -0.487  0.00  0.00    +0.155 HD
BRANCH  22  25
ATOM     25  C   UNL     1       4.598   2.149  -3.243  0.00  0.00    +0.068 C 
ATOM     26  C   UNL     1       5.780   2.639  -3.650  0.00  0.00    +0.028 C 
BRANCH  26  27
ATOM     27  C   UNL     1       6.273   2.997  -5.013  0.00  0.00    +0.160 C 
BRANCH  27  28
ATOM     28  N   UNL     1       5.465   2.634  -6.235  0.00  0.00    +0.238 N 
ATOM     29  C   UNL     1       5.276   1.149  -6.433  0.00  0.00    +0.131 C 
ATOM     30  C   UNL     1       4.715   0.898  -7.826  0.00  0.00    +0.051 C 
ATOM     31  C   UNL     1       3.432   1.687  -8.067  0.00  0.00    +0.010 C 
ATOM     32  C   UNL     1       3.642   3.177  -7.815  0.00  0.00    +0.051 C 
ATOM     33  C   UNL     1       4.206   3.443  -6.425  0.00  0.00    +0.131 C 
ATOM     34  H   UNL     1       6.078   2.924  -7.009  0.00  0.00    +0.204 HD
ENDBRANCH  27  28
ENDBRANCH  26  27
ENDBRANCH  22  25
ENDBRANCH   2  21
BRANCH   1  36
ATOM     35  C   UNL     1      -0.445   0.383   0.078  0.00  0.00    +0.277 C 
ATOM     36  O   UNL     1       0.778   0.857  -0.478  0.00  0.00    -0.493 OA
ENDBRANCH   1  36
TORSDOF 6
