MODEL 1
REMARK minimizedAffinity -7.54269075
REMARK minimizedRMSD -1
REMARK  Name = 
REMARK  0 active torsions:
REMARK  status: ('A' for Active; 'I' for Inactive)
REMARK                            x       y       z     vdW  Elec       q    Type
REMARK                         _______ _______ _______ _____ _____    ______ ____
ROOT
ATOM      1  C   UNL     1      14.829  28.395   7.543  0.00  0.00    +0.148 C 
ATOM      2  C   UNL     1      14.012  29.482   6.816  0.00  0.00    +0.157 C 
ATOM      3  N   UNL     1      14.886  30.540   6.280  0.00  0.00    -0.305 N 
ATOM      4  C   UNL     1      15.979  30.082   5.410  0.00  0.00    +0.157 C 
ATOM      5  C   UNL     1      16.830  29.019   6.140  0.00  0.00    +0.148 C 
ATOM      6  N   UNL     1      15.950  27.897   6.647  0.00  0.00    +0.229 N 
ATOM      7  C   UNL     1      15.218  31.555   7.179  0.00  0.00    +0.122 A 
ATOM      8  N   UNL     1      15.187  31.272   8.498  0.00  0.00    -0.232 NA
ATOM      9  C   UNL     1      15.495  32.240   9.386  0.00  0.00    +0.073 A 
ATOM     10  C   UNL     1      15.448  31.966  10.748  0.00  0.00    +0.028 A 
ATOM     11  C   UNL     1      15.756  32.937  11.707  0.00  0.00    +0.002 A 
ATOM     12  C   UNL     1      16.125  34.215  11.304  0.00  0.00    +0.001 A 
ATOM     13  C   UNL     1      16.183  34.518   9.947  0.00  0.00    +0.010 A 
ATOM     14  C   UNL     1      15.870  33.539   8.988  0.00  0.00    +0.001 A 
ATOM     15  C   UNL     1      15.911  33.811   7.620  0.00  0.00    +0.013 A 
ATOM     16  C   UNL     1      15.583  32.811   6.710  0.00  0.00    +0.044 A 
ATOM     17  H   UNL     1      16.522  27.225   7.173  0.00  0.00    +0.201 HD
ATOM     18  H   UNL     1      15.544  27.391   5.851  0.00  0.00    +0.201 HD
ENDROOT
TORSDOF 0
ENDMDL
MODEL 2
REMARK minimizedAffinity -7.01955605
REMARK minimizedRMSD -1
REMARK  Name = 
REMARK  0 active torsions:
REMARK  status: ('A' for Active; 'I' for Inactive)
REMARK                            x       y       z     vdW  Elec       q    Type
REMARK                         _______ _______ _______ _____ _____    ______ ____
ROOT
ATOM      1  C   UNL     1      21.652  32.523  12.762  0.00  0.00    +0.148 C 
ATOM      2  C   UNL     1      21.754  34.061  12.788  0.00  0.00    +0.157 C 
ATOM      3  N   UNL     1      21.401  34.599  14.113  0.00  0.00    -0.305 N 
ATOM      4  C   UNL     1      22.148  34.038  15.247  0.00  0.00    +0.157 C 
ATOM      5  C   UNL     1      22.024  32.498  15.257  0.00  0.00    +0.148 C 
ATOM      6  N   UNL     1      22.438  31.928  13.917  0.00  0.00    +0.229 N 
ATOM      7  C   UNL     1      20.037  34.803  14.332  0.00  0.00    +0.122 A 
ATOM      8  N   UNL     1      19.160  34.066  13.618  0.00  0.00    -0.232 NA
ATOM      9  C   UNL     1      17.838  34.252  13.807  0.00  0.00    +0.073 A 
ATOM     10  C   UNL     1      16.925  33.513  13.063  0.00  0.00    +0.028 A 
ATOM     11  C   UNL     1      15.545  33.671  13.222  0.00  0.00    +0.002 A 
ATOM     12  C   UNL     1      15.054  34.586  14.145  0.00  0.00    +0.001 A 
ATOM     13  C   UNL     1      15.944  35.339  14.906  0.00  0.00    +0.010 A 
ATOM     14  C   UNL     1      17.331  35.177  14.741  0.00  0.00    +0.001 A 
ATOM     15  C   UNL     1      18.250  35.920  15.482  0.00  0.00    +0.013 A 
ATOM     16  C   UNL     1      19.612  35.731  15.275  0.00  0.00    +0.044 A 
ATOM     17  H   UNL     1      22.301  30.910  13.923  0.00  0.00    +0.201 HD
ATOM     18  H   UNL     1      23.439  32.098  13.766  0.00  0.00    +0.201 HD
ENDROOT
TORSDOF 0
ENDMDL
MODEL 3
REMARK minimizedAffinity -6.99992752
REMARK minimizedRMSD -1
REMARK  Name = 
REMARK  0 active torsions:
REMARK  status: ('A' for Active; 'I' for Inactive)
REMARK                            x       y       z     vdW  Elec       q    Type
REMARK                         _______ _______ _______ _____ _____    ______ ____
ROOT
ATOM      1  C   UNL     1      21.748  35.283  15.193  0.00  0.00    +0.148 C 
ATOM      2  C   UNL     1      21.804  33.755  14.991  0.00  0.00    +0.157 C 
ATOM      3  N   UNL     1      21.609  33.395  13.576  0.00  0.00    -0.305 N 
ATOM      4  C   UNL     1      22.513  34.050  12.622  0.00  0.00    +0.157 C 
ATOM      5  C   UNL     1      22.439  35.585  12.786  0.00  0.00    +0.148 C 
ATOM      6  N   UNL     1      22.695  35.973  14.227  0.00  0.00    +0.229 N 
ATOM      7  C   UNL     1      20.279  33.282  13.166  0.00  0.00    +0.122 A 
ATOM      8  N   UNL     1      19.341  33.970  13.850  0.00  0.00    -0.232 NA
ATOM      9  C   UNL     1      18.048  33.869  13.477  0.00  0.00    +0.073 A 
ATOM     10  C   UNL     1      17.071  34.557  14.187  0.00  0.00    +0.028 A 
ATOM     11  C   UNL     1      15.718  34.483  13.839  0.00  0.00    +0.002 A 
ATOM     12  C   UNL     1      15.323  33.708  12.756  0.00  0.00    +0.001 A 
ATOM     13  C   UNL     1      16.280  33.009  12.025  0.00  0.00    +0.010 A 
ATOM     14  C   UNL     1      17.638  33.086  12.380  0.00  0.00    +0.001 A 
ATOM     15  C   UNL     1      18.622  32.393  11.673  0.00  0.00    +0.013 A 
ATOM     16  C   UNL     1      19.951  32.493  12.070  0.00  0.00    +0.044 A 
ATOM     17  H   UNL     1      22.592  36.990  14.330  0.00  0.00    +0.201 HD
ATOM     18  H   UNL     1      23.662  35.739  14.480  0.00  0.00    +0.201 HD
ENDROOT
TORSDOF 0
ENDMDL
MODEL 4
REMARK minimizedAffinity -6.92403412
REMARK minimizedRMSD -1
REMARK  Name = 
REMARK  0 active torsions:
REMARK  status: ('A' for Active; 'I' for Inactive)
REMARK                            x       y       z     vdW  Elec       q    Type
REMARK                         _______ _______ _______ _____ _____    ______ ____
ROOT
ATOM      1  C   UNL     1      15.295  32.563  11.311  0.00  0.00    +0.148 C 
ATOM      2  C   UNL     1      16.723  32.055  11.025  0.00  0.00    +0.157 C 
ATOM      3  N   UNL     1      17.230  32.575   9.744  0.00  0.00    -0.305 N 
ATOM      4  C   UNL     1      17.188  34.035   9.589  0.00  0.00    +0.157 C 
ATOM      5  C   UNL     1      15.755  34.556   9.834  0.00  0.00    +0.148 C 
ATOM      6  N   UNL     1      15.242  34.074  11.175  0.00  0.00    +0.229 N 
ATOM      7  C   UNL     1      16.868  31.839   8.614  0.00  0.00    +0.122 A 
ATOM      8  N   UNL     1      15.745  31.093   8.673  0.00  0.00    -0.232 NA
ATOM      9  C   UNL     1      15.380  30.366   7.597  0.00  0.00    +0.073 A 
ATOM     10  C   UNL     1      14.235  29.579   7.653  0.00  0.00    +0.028 A 
ATOM     11  C   UNL     1      13.817  28.808   6.564  0.00  0.00    +0.002 A 
ATOM     12  C   UNL     1      14.553  28.818   5.385  0.00  0.00    +0.001 A 
ATOM     13  C   UNL     1      15.702  29.598   5.299  0.00  0.00    +0.010 A 
ATOM     14  C   UNL     1      16.119  30.371   6.397  0.00  0.00    +0.001 A 
ATOM     15  C   UNL     1      17.269  31.159   6.347  0.00  0.00    +0.013 A 
ATOM     16  C   UNL     1      17.645  31.897   7.464  0.00  0.00    +0.044 A 
ATOM     17  H   UNL     1      14.272  34.386  11.301  0.00  0.00    +0.201 HD
ATOM     18  H   UNL     1      15.796  34.499  11.928  0.00  0.00    +0.201 HD
ENDROOT
TORSDOF 0
ENDMDL
MODEL 5
REMARK minimizedAffinity -6.81404972
REMARK minimizedRMSD -1
REMARK  Name = 
REMARK  0 active torsions:
REMARK  status: ('A' for Active; 'I' for Inactive)
REMARK                            x       y       z     vdW  Elec       q    Type
REMARK                         _______ _______ _______ _____ _____    ______ ____
ROOT
ATOM      1  C   UNL     1      19.022  31.768  12.626  0.00  0.00    +0.148 C 
ATOM      2  C   UNL     1      19.196  33.199  12.080  0.00  0.00    +0.157 C 
ATOM      3  N   UNL     1      17.896  33.873  11.921  0.00  0.00    -0.305 N 
ATOM      4  C   UNL     1      17.044  33.904  13.118  0.00  0.00    +0.157 C 
ATOM      5  C   UNL     1      16.829  32.471  13.655  0.00  0.00    +0.148 C 
ATOM      6  N   UNL     1      18.161  31.786  13.876  0.00  0.00    +0.229 N 
ATOM      7  C   UNL     1      17.235  33.621  10.718  0.00  0.00    +0.122 A 
ATOM      8  N   UNL     1      17.514  32.472  10.067  0.00  0.00    -0.232 NA
ATOM      9  C   UNL     1      16.894  32.211   8.897  0.00  0.00    +0.073 A 
ATOM     10  C   UNL     1      17.188  31.040   8.209  0.00  0.00    +0.028 A 
ATOM     11  C   UNL     1      16.572  30.725   6.993  0.00  0.00    +0.002 A 
ATOM     12  C   UNL     1      15.637  31.596   6.445  0.00  0.00    +0.001 A 
ATOM     13  C   UNL     1      15.321  32.775   7.113  0.00  0.00    +0.010 A 
ATOM     14  C   UNL     1      15.944  33.086   8.334  0.00  0.00    +0.001 A 
ATOM     15  C   UNL     1      15.655  34.263   9.027  0.00  0.00    +0.013 A 
ATOM     16  C   UNL     1      16.306  34.530  10.227  0.00  0.00    +0.044 A 
ATOM     17  H   UNL     1      18.000  30.820  14.184  0.00  0.00    +0.201 HD
ATOM     18  H   UNL     1      18.671  32.263  14.629  0.00  0.00    +0.201 HD
ENDROOT
TORSDOF 0
ENDMDL
