REMARK  Name = =
REMARK  2 active torsions:
REMARK  status: ('A' for Active; 'I' for Inactive)
REMARK    1  A    between atoms: N_1  and  C_17
REMARK    2  A    between atoms: C_17  and  C_19
REMARK                            x       y       z     vdW  Elec       q    Type
REMARK                         _______ _______ _______ _____ _____    ______ ____
ROOT
ATOM      1  N   UNL     1      17.283  32.708  13.123  0.00  0.00    -0.329 N 
ATOM      2  C   UNL     1      18.499  32.075  13.080  0.00  0.00    +0.200 C 
ATOM      3  N   UNL     1      19.120  32.127  14.229  0.00  0.00    -0.232 NA
ATOM      4  C   UNL     1      18.263  32.813  15.068  0.00  0.00    +0.129 A 
ATOM      5  C   UNL     1      17.088  33.188  14.402  0.00  0.00    +0.081 A 
ATOM      6  C   UNL     1      16.064  33.899  15.091  0.00  0.00    +0.026 A 
ATOM      7  C   UNL     1      14.842  34.325  14.522  0.00  0.00    +0.012 C 
ATOM      8  C   UNL     1      13.908  35.016  15.292  0.00  0.00    +0.001 C 
ATOM      9  C   UNL     1      14.182  35.286  16.626  0.00  0.00    +0.002 C 
ATOM     10  C   UNL     1      15.392  34.866  17.187  0.00  0.00    +0.028 C 
ATOM     11  C   UNL     1      16.345  34.176  16.453  0.00  0.00    +0.075 A 
ATOM     12  N   UNL     1      17.473  33.818  17.083  0.00  0.00    -0.230 NA
ATOM     13  C   UNL     1      18.441  33.142  16.427  0.00  0.00    +0.145 A 
ATOM     14  N   UNL     1      19.574  32.800  17.129  0.00  0.00    -0.341 N 
ATOM     15  H   UNL     1      20.304  32.294  16.650  0.00  0.00    +0.144 HD
ATOM     16  H   UNL     1      19.631  33.068  18.097  0.00  0.00    +0.144 HD
ENDROOT
BRANCH   1  17
ATOM     17  C   UNL     1      16.395  32.772  11.979  0.00  0.00    +0.126 C 
BRANCH  17  19
ATOM     18  C   UNL     1      17.317  32.185   9.681  0.00  0.00    +0.009 C 
ATOM     19  C   UNL     1      17.064  33.301  10.697  0.00  0.00    +0.003 C 
ATOM     20  C   UNL     1      16.189  34.386  10.067  0.00  0.00    +0.009 C 
ENDBRANCH  17  19
ENDBRANCH   1  17
TORSDOF 2
