REMARK  Name = =
REMARK  0 active torsions:
REMARK  status: ('A' for Active; 'I' for Inactive)
REMARK                            x       y       z     vdW  Elec       q    Type
REMARK                         _______ _______ _______ _____ _____    ______ ____
ROOT
ATOM      1  C   UNL     1      16.100  33.499   8.974  0.00  0.00    +0.067 C 
ATOM      2  C   UNL     1      16.458  33.577  10.423  0.00  0.00    +0.057 C 
ATOM      3  C   UNL     1      15.529  34.002  11.365  0.00  0.00    +0.134 C 
ATOM      4  N   UNL     1      15.798  34.090  12.691  0.00  0.00    -0.252 NA
ATOM      5  C   UNL     1      17.042  33.737  13.072  0.00  0.00    +0.091 C 
ATOM      6  C   UNL     1      17.406  33.796  14.411  0.00  0.00    +0.032 C 
ATOM      7  C   UNL     1      18.684  33.441  14.864  0.00  0.00    +0.030 C 
ATOM      8  C   UNL     1      19.605  33.014  13.901  0.00  0.00    +0.072 A 
ATOM      9  C   UNL     1      19.289  32.938  12.542  0.00  0.00    +0.118 A 
ATOM     10  C   UNL     1      17.988  33.304  12.116  0.00  0.00    +0.117 C 
ATOM     11  N   UNL     1      17.709  33.219  10.787  0.00  0.00    -0.247 NA
ATOM     12  N   UNL     1      20.381  32.488  11.825  0.00  0.00    -0.212 NA
ATOM     13  C   UNL     1      21.334  32.292  12.697  0.00  0.00    +0.194 A 
ATOM     14  N   UNL     1      20.916  32.597  13.970  0.00  0.00    -0.315 N 
ATOM     15  C   UNL     1      21.721  32.494  15.162  0.00  0.00    +0.152 C 
ATOM     16  N   UNL     1      22.566  31.855  12.419  0.00  0.00    -0.329 N 
ATOM     17  H   UNL     1      22.788  31.653  11.449  0.00  0.00    +0.145 HD
ATOM     18  H   UNL     1      23.306  31.700  13.088  0.00  0.00    +0.145 HD
ENDROOT
TORSDOF 0
