REMARK  Name = =
REMARK  1 active torsions:
REMARK  status: ('A' for Active; 'I' for Inactive)
REMARK    1  A    between atoms: C_7  and  N_15
REMARK                            x       y       z     vdW  Elec       q    Type
REMARK                         _______ _______ _______ _____ _____    ______ ____
ROOT
ATOM      1  C   UNL     1      15.533  35.966  17.193  0.00  0.00    +0.001 C 
ATOM      2  C   UNL     1      14.232  35.665  16.824  0.00  0.00    +0.002 C 
ATOM      3  C   UNL     1      13.997  35.008  15.617  0.00  0.00    +0.028 C 
ATOM      4  C   UNL     1      15.028  34.642  14.761  0.00  0.00    +0.073 A 
ATOM      5  C   UNL     1      16.358  34.937  15.117  0.00  0.00    +0.022 A 
ATOM      6  C   UNL     1      16.586  35.605  16.349  0.00  0.00    +0.012 C 
ATOM      7  C   UNL     1      17.380  34.547  14.204  0.00  0.00    +0.043 A 
ATOM      8  C   UNL     1      17.023  33.872  13.002  0.00  0.00    +0.022 A 
ATOM      9  C   UNL     1      17.946  33.423  12.019  0.00  0.00    +0.012 C 
ATOM     10  C   UNL     1      17.524  32.774  10.859  0.00  0.00    +0.001 C 
ATOM     11  C   UNL     1      16.173  32.555  10.654  0.00  0.00    +0.002 C 
ATOM     12  C   UNL     1      15.255  32.989  11.612  0.00  0.00    +0.028 C 
ATOM     13  C   UNL     1      15.652  33.639  12.774  0.00  0.00    +0.073 A 
ATOM     14  N   UNL     1      14.693  34.015  13.627  0.00  0.00    -0.247 NA
ENDROOT
BRANCH   7  15
ATOM     15  N   UNL     1      18.730  34.768  14.517  0.00  0.00    -0.357 N 
ATOM     16  H   UNL     1      18.995  35.303  15.329  0.00  0.00    +0.142 HD
ATOM     17  H   UNL     1      19.459  34.559  13.853  0.00  0.00    +0.142 HD
ENDBRANCH   7  15
TORSDOF 1
