MODEL 1
REMARK minimizedAffinity -11.008604
REMARK minimizedRMSD -1
REMARK  Name = 
REMARK  6 active torsions:
REMARK  status: ('A' for Active; 'I' for Inactive)
REMARK    1  A    between atoms: C_1  and  C_2
REMARK    2  A    between atoms: N_7  and  C_8
REMARK    3  A    between atoms: N_18  and  C_19
REMARK    4  A    between atoms: C_22  and  O_25
REMARK    5  A    between atoms: O_25  and  C_26
REMARK    6  A    between atoms: C_26  and  C_27
REMARK                            x       y       z     vdW  Elec       q    Type
REMARK                         _______ _______ _______ _____ _____    ______ ____
ROOT
ATOM      1  C   UNL     1      16.779  35.935  16.649  0.00  0.00    +0.040 A 
ATOM      2  C   UNL     1      16.715  35.190  15.466  0.00  0.00    +0.037 A 
ATOM      3  C   UNL     1      15.484  34.689  14.959  0.00  0.00    +0.042 A 
ATOM      4  C   UNL     1      14.296  34.968  15.642  0.00  0.00    +0.076 A 
ATOM      5  C   UNL     1      14.365  35.717  16.806  0.00  0.00    +0.030 A 
ATOM      6  C   UNL     1      15.580  36.207  17.306  0.00  0.00    +0.025 A 
ATOM      7  N   UNL     1      13.099  34.571  15.218  0.00  0.00    -0.235 NA
ATOM      8  C   UNL     1      13.064  33.893  14.065  0.00  0.00    +0.223 A 
ATOM      9  N   UNL     1      14.124  33.568  13.323  0.00  0.00    -0.220 NA
ATOM     10  C   UNL     1      15.332  33.944  13.775  0.00  0.00    +0.134 A 
ATOM     11  N   UNL     1      16.472  33.562  13.035  0.00  0.00    -0.299 N 
ATOM     12  H   UNL     1      17.147  33.052  13.589  0.00  0.00    +0.154 HD
ENDROOT
BRANCH   1  19
ATOM     13  C   UNL     1      21.321  35.207  13.995  0.00  0.00    +0.089 C 
ATOM     14  C   UNL     1      20.737  36.354  14.788  0.00  0.00    +0.299 C 
ATOM     15  C   UNL     1      21.298  36.488  16.192  0.00  0.00    +0.311 C 
ATOM     16  O   UNL     1      20.177  36.861  17.015  0.00  0.00    -0.425 OA
ATOM     17  C   UNL     1      19.102  36.427  16.345  0.00  0.00    +0.444 C 
ATOM     18  N   UNL     1      19.336  36.110  15.088  0.00  0.00    -0.190 N 
ATOM     19  N   UNL     1      17.987  36.425  17.033  0.00  0.00    -0.229 N 
ATOM     20  H   UNL     1      18.596  35.881  14.440  0.00  0.00    +0.451 HD
ATOM     21  H   UNL     1      18.077  36.859  17.947  0.00  0.00    +0.161 HD
ENDBRANCH   1  19
BRANCH  11  22
ATOM     22  C   UNL     1      16.558  33.317  11.650  0.00  0.00    +0.034 A 
ATOM     23  C   UNL     1      15.853  34.087  10.714  0.00  0.00    +0.047 A 
ATOM     24  C   UNL     1      15.955  33.828   9.344  0.00  0.00    +0.084 A 
ATOM     25  C   UNL     1      16.738  32.762   8.895  0.00  0.00    +0.139 A 
ATOM     26  C   UNL     1      17.484  32.019   9.811  0.00  0.00    +0.049 A 
ATOM     27  C   UNL     1      17.393  32.295  11.178  0.00  0.00    +0.027 A 
ATOM     28 CL   UNL     1      15.141  34.891   8.253  0.00  0.00    -0.080 Cl
BRANCH  25  29
ATOM     29  O   UNL     1      16.889  32.436   7.573  0.00  0.00    -0.484 OA
BRANCH  29  30
ATOM     30  C   UNL     1      17.433  31.114   7.386  0.00  0.00    +0.291 C 
BRANCH  30  31
ATOM     31  C   UNL     1      16.349  30.168   6.957  0.00  0.00    +0.116 A 
ATOM     32  N   UNL     1      15.578  29.496   7.791  0.00  0.00    -0.249 NA
ATOM     33  C   UNL     1      14.672  28.735   7.081  0.00  0.00    +0.119 A 
ATOM     34  C   UNL     1      14.764  28.826   5.710  0.00  0.00    +0.066 A 
ATOM     35  S   UNL     1      16.026  29.905   5.285  0.00  0.00    -0.077 S 
ENDBRANCH  30  31
ENDBRANCH  29  30
ENDBRANCH  25  29
ENDBRANCH  11  22
TORSDOF 5
ENDMDL
MODEL 2
REMARK minimizedAffinity -10.7362671
REMARK minimizedRMSD -1
REMARK  Name = 
REMARK  6 active torsions:
REMARK  status: ('A' for Active; 'I' for Inactive)
REMARK    1  A    between atoms: C_1  and  C_2
REMARK    2  A    between atoms: N_7  and  C_8
REMARK    3  A    between atoms: N_18  and  C_19
REMARK    4  A    between atoms: C_22  and  O_25
REMARK    5  A    between atoms: O_25  and  C_26
REMARK    6  A    between atoms: C_26  and  C_27
REMARK                            x       y       z     vdW  Elec       q    Type
REMARK                         _______ _______ _______ _____ _____    ______ ____
ROOT
ATOM      1  C   UNL     1      19.026  36.147  16.023  0.00  0.00    +0.040 A 
ATOM      2  C   UNL     1      18.582  35.366  14.950  0.00  0.00    +0.037 A 
ATOM      3  C   UNL     1      17.228  34.947  14.835  0.00  0.00    +0.042 A 
ATOM      4  C   UNL     1      16.301  35.345  15.805  0.00  0.00    +0.076 A 
ATOM      5  C   UNL     1      16.745  36.129  16.859  0.00  0.00    +0.030 A 
ATOM      6  C   UNL     1      18.082  36.538  16.971  0.00  0.00    +0.025 A 
ATOM      7  N   UNL     1      15.010  35.030  15.754  0.00  0.00    -0.235 NA
ATOM      8  C   UNL     1      14.607  34.315  14.698  0.00  0.00    +0.223 A 
ATOM      9  N   UNL     1      15.391  33.879  13.710  0.00  0.00    -0.220 NA
ATOM     10  C   UNL     1      16.700  34.173  13.786  0.00  0.00    +0.134 A 
ATOM     11  N   UNL     1      17.557  33.674  12.781  0.00  0.00    -0.299 N 
ATOM     12  H   UNL     1      18.325  33.133  13.154  0.00  0.00    +0.154 HD
ENDROOT
BRANCH   1  19
ATOM     13  C   UNL     1      22.983  33.611  18.497  0.00  0.00    +0.089 C 
ATOM     14  C   UNL     1      22.872  34.375  17.197  0.00  0.00    +0.299 C 
ATOM     15  C   UNL     1      23.417  35.791  17.259  0.00  0.00    +0.311 C 
ATOM     16  O   UNL     1      22.512  36.581  16.467  0.00  0.00    -0.425 OA
ATOM     17  C   UNL     1      21.365  35.892  16.468  0.00  0.00    +0.444 C 
ATOM     18  N   UNL     1      21.480  34.645  16.877  0.00  0.00    -0.190 N 
ATOM     19  N   UNL     1      20.323  36.553  16.027  0.00  0.00    -0.229 N 
ATOM     20  H   UNL     1      20.721  33.983  16.817  0.00  0.00    +0.451 HD
ATOM     21  H   UNL     1      20.558  37.463  15.642  0.00  0.00    +0.161 HD
ENDBRANCH   1  19
BRANCH  11  22
ATOM     22  C   UNL     1      17.233  33.372  11.444  0.00  0.00    +0.034 A 
ATOM     23  C   UNL     1      16.370  34.179  10.688  0.00  0.00    +0.047 A 
ATOM     24  C   UNL     1      16.064  33.861   9.361  0.00  0.00    +0.084 A 
ATOM     25  C   UNL     1      16.590  32.703   8.785  0.00  0.00    +0.139 A 
ATOM     26  C   UNL     1      17.489  31.919   9.508  0.00  0.00    +0.049 A 
ATOM     27  C   UNL     1      17.806  32.251  10.828  0.00  0.00    +0.027 A 
ATOM     28 CL   UNL     1      15.081  34.965   8.467  0.00  0.00    -0.080 Cl
BRANCH  25  29
ATOM     29  O   UNL     1      16.338  32.316   7.495  0.00  0.00    -0.484 OA
BRANCH  29  30
ATOM     30  C   UNL     1      16.780  30.971   7.223  0.00  0.00    +0.291 C 
BRANCH  30  31
ATOM     31  C   UNL     1      15.595  30.077   6.992  0.00  0.00    +0.116 A 
ATOM     32  N   UNL     1      14.532  30.038   7.773  0.00  0.00    -0.249 NA
ATOM     33  C   UNL     1      13.618  29.133   7.274  0.00  0.00    +0.119 A 
ATOM     34  C   UNL     1      13.995  28.482   6.120  0.00  0.00    +0.066 A 
ATOM     35  S   UNL     1      15.548  29.020   5.633  0.00  0.00    -0.077 S 
ENDBRANCH  30  31
ENDBRANCH  29  30
ENDBRANCH  25  29
ENDBRANCH  11  22
TORSDOF 5
ENDMDL
MODEL 3
REMARK minimizedAffinity -9.66820526
REMARK minimizedRMSD -1
REMARK  Name = 
REMARK  6 active torsions:
REMARK  status: ('A' for Active; 'I' for Inactive)
REMARK    1  A    between atoms: C_1  and  C_2
REMARK    2  A    between atoms: N_7  and  C_8
REMARK    3  A    between atoms: N_18  and  C_19
REMARK    4  A    between atoms: C_22  and  O_25
REMARK    5  A    between atoms: O_25  and  C_26
REMARK    6  A    between atoms: C_26  and  C_27
REMARK                            x       y       z     vdW  Elec       q    Type
REMARK                         _______ _______ _______ _____ _____    ______ ____
ROOT
ATOM      1  C   UNL     1      17.871  32.110  11.242  0.00  0.00    +0.040 A 
ATOM      2  C   UNL     1      19.214  32.357  11.547  0.00  0.00    +0.037 A 
ATOM      3  C   UNL     1      19.598  33.144  12.668  0.00  0.00    +0.042 A 
ATOM      4  C   UNL     1      18.611  33.667  13.510  0.00  0.00    +0.076 A 
ATOM      5  C   UNL     1      17.283  33.408  13.209  0.00  0.00    +0.030 A 
ATOM      6  C   UNL     1      16.907  32.634  12.101  0.00  0.00    +0.025 A 
ATOM      7  N   UNL     1      18.884  34.380  14.599  0.00  0.00    -0.235 NA
ATOM      8  C   UNL     1      20.176  34.568  14.886  0.00  0.00    +0.223 A 
ATOM      9  N   UNL     1      21.206  34.120  14.166  0.00  0.00    -0.220 NA
ATOM     10  C   UNL     1      20.922  33.429  13.049  0.00  0.00    +0.134 A 
ATOM     11  N   UNL     1      21.995  32.993  12.241  0.00  0.00    -0.299 N 
ATOM     12  H   UNL     1      21.917  33.307  11.284  0.00  0.00    +0.154 HD
ENDROOT
BRANCH   1  19
ATOM     13  C   UNL     1      14.958  33.523   7.032  0.00  0.00    +0.089 C 
ATOM     14  C   UNL     1      16.179  32.653   7.223  0.00  0.00    +0.299 C 
ATOM     15  C   UNL     1      15.888  31.163   7.229  0.00  0.00    +0.311 C 
ATOM     16  O   UNL     1      16.756  30.610   8.235  0.00  0.00    -0.425 OA
ATOM     17  C   UNL     1      17.029  31.634   9.052  0.00  0.00    +0.444 C 
ATOM     18  N   UNL     1      16.723  32.818   8.561  0.00  0.00    -0.190 N 
ATOM     19  N   UNL     1      17.591  31.300  10.187  0.00  0.00    -0.229 N 
ATOM     20  H   UNL     1      16.983  33.678   9.020  0.00  0.00    +0.451 HD
ATOM     21  H   UNL     1      17.841  30.317  10.238  0.00  0.00    +0.161 HD
ENDBRANCH   1  19
BRANCH  11  22
ATOM     22  C   UNL     1      23.310  32.690  12.645  0.00  0.00    +0.034 A 
ATOM     23  C   UNL     1      24.188  31.959  11.831  0.00  0.00    +0.047 A 
ATOM     24  C   UNL     1      25.489  31.671  12.252  0.00  0.00    +0.084 A 
ATOM     25  C   UNL     1      25.918  32.080  13.517  0.00  0.00    +0.139 A 
ATOM     26  C   UNL     1      25.072  32.850  14.316  0.00  0.00    +0.049 A 
ATOM     27  C   UNL     1      23.779  33.151  13.883  0.00  0.00    +0.027 A 
ATOM     28 CL   UNL     1      26.540  30.861  11.146  0.00  0.00    -0.080 Cl
BRANCH  25  29
ATOM     29  O   UNL     1      27.173  31.836  14.009  0.00  0.00    -0.484 OA
BRANCH  29  30
ATOM     30  C   UNL     1      27.593  32.822  14.972  0.00  0.00    +0.291 C 
BRANCH  30  31
ATOM     31  C   UNL     1      27.805  32.176  16.311  0.00  0.00    +0.116 A 
ATOM     32  N   UNL     1      28.426  31.025  16.489  0.00  0.00    -0.249 NA
ATOM     33  C   UNL     1      28.472  30.722  17.834  0.00  0.00    +0.119 A 
ATOM     34  C   UNL     1      27.880  31.641  18.672  0.00  0.00    +0.066 A 
ATOM     35  S   UNL     1      27.242  32.937  17.750  0.00  0.00    -0.077 S 
ENDBRANCH  30  31
ENDBRANCH  29  30
ENDBRANCH  25  29
ENDBRANCH  11  22
TORSDOF 5
ENDMDL
MODEL 4
REMARK minimizedAffinity -9.4407196
REMARK minimizedRMSD -1
REMARK  Name = 
REMARK  6 active torsions:
REMARK  status: ('A' for Active; 'I' for Inactive)
REMARK    1  A    between atoms: C_1  and  C_2
REMARK    2  A    between atoms: N_7  and  C_8
REMARK    3  A    between atoms: N_18  and  C_19
REMARK    4  A    between atoms: C_22  and  O_25
REMARK    5  A    between atoms: O_25  and  C_26
REMARK    6  A    between atoms: C_26  and  C_27
REMARK                            x       y       z     vdW  Elec       q    Type
REMARK                         _______ _______ _______ _____ _____    ______ ____
ROOT
ATOM      1  C   UNL     1      16.756  32.780  11.937  0.00  0.00    +0.040 A 
ATOM      2  C   UNL     1      17.823  33.292  12.684  0.00  0.00    +0.037 A 
ATOM      3  C   UNL     1      17.618  34.180  13.775  0.00  0.00    +0.042 A 
ATOM      4  C   UNL     1      16.314  34.536  14.135  0.00  0.00    +0.076 A 
ATOM      5  C   UNL     1      15.262  34.015  13.399  0.00  0.00    +0.030 A 
ATOM      6  C   UNL     1      15.467  33.142  12.322  0.00  0.00    +0.025 A 
ATOM      7  N   UNL     1      16.032  35.330  15.165  0.00  0.00    -0.235 NA
ATOM      8  C   UNL     1      17.070  35.774  15.884  0.00  0.00    +0.223 A 
ATOM      9  N   UNL     1      18.354  35.505  15.643  0.00  0.00    -0.220 NA
ATOM     10  C   UNL     1      18.633  34.729  14.581  0.00  0.00    +0.134 A 
ATOM     11  N   UNL     1      19.987  34.477  14.274  0.00  0.00    -0.299 N 
ATOM     12  H   UNL     1      20.229  34.733  13.327  0.00  0.00    +0.154 HD
ENDROOT
BRANCH   1  19
ATOM     13  C   UNL     1      15.116  33.243   6.907  0.00  0.00    +0.089 C 
ATOM     14  C   UNL     1      16.380  32.731   7.559  0.00  0.00    +0.299 C 
ATOM     15  C   UNL     1      16.465  31.217   7.646  0.00  0.00    +0.311 C 
ATOM     16  O   UNL     1      17.066  30.944   8.925  0.00  0.00    -0.425 OA
ATOM     17  C   UNL     1      16.808  32.030   9.664  0.00  0.00    +0.444 C 
ATOM     18  N   UNL     1      16.405  33.075   8.971  0.00  0.00    -0.190 N 
ATOM     19  N   UNL     1      17.035  31.891  10.946  0.00  0.00    -0.229 N 
ATOM     20  H   UNL     1      16.289  33.988   9.386  0.00  0.00    +0.451 HD
ATOM     21  H   UNL     1      17.480  31.010  11.184  0.00  0.00    +0.161 HD
ENDBRANCH   1  19
BRANCH  11  22
ATOM     22  C   UNL     1      21.081  34.448  15.162  0.00  0.00    +0.034 A 
ATOM     23  C   UNL     1      21.775  35.611  15.525  0.00  0.00    +0.047 A 
ATOM     24  C   UNL     1      22.856  35.558  16.410  0.00  0.00    +0.084 A 
ATOM     25  C   UNL     1      23.283  34.328  16.913  0.00  0.00    +0.139 A 
ATOM     26  C   UNL     1      22.571  33.170  16.600  0.00  0.00    +0.049 A 
ATOM     27  C   UNL     1      21.479  33.230  15.731  0.00  0.00    +0.027 A 
ATOM     28 CL   UNL     1      23.587  37.049  16.889  0.00  0.00    -0.080 Cl
BRANCH  25  29
ATOM     29  O   UNL     1      24.335  34.186  17.780  0.00  0.00    -0.484 OA
BRANCH  29  30
ATOM     30  C   UNL     1      23.942  33.607  19.040  0.00  0.00    +0.291 C 
BRANCH  30  31
ATOM     31  C   UNL     1      25.102  32.878  19.656  0.00  0.00    +0.116 A 
ATOM     32  N   UNL     1      25.690  31.828  19.114  0.00  0.00    -0.249 NA
ATOM     33  C   UNL     1      26.732  31.410  19.916  0.00  0.00    +0.119 A 
ATOM     34  C   UNL     1      26.925  32.140  21.068  0.00  0.00    +0.066 A 
ATOM     35  S   UNL     1      25.768  33.401  21.156  0.00  0.00    -0.077 S 
ENDBRANCH  30  31
ENDBRANCH  29  30
ENDBRANCH  25  29
ENDBRANCH  11  22
TORSDOF 5
ENDMDL
MODEL 5
REMARK minimizedAffinity -9.40138817
REMARK minimizedRMSD -1
REMARK  Name = 
REMARK  6 active torsions:
REMARK  status: ('A' for Active; 'I' for Inactive)
REMARK    1  A    between atoms: C_1  and  C_2
REMARK    2  A    between atoms: N_7  and  C_8
REMARK    3  A    between atoms: N_18  and  C_19
REMARK    4  A    between atoms: C_22  and  O_25
REMARK    5  A    between atoms: O_25  and  C_26
REMARK    6  A    between atoms: C_26  and  C_27
REMARK                            x       y       z     vdW  Elec       q    Type
REMARK                         _______ _______ _______ _____ _____    ______ ____
ROOT
ATOM      1  C   UNL     1      16.673  32.515  10.871  0.00  0.00    +0.040 A 
ATOM      2  C   UNL     1      17.590  33.022  11.799  0.00  0.00    +0.037 A 
ATOM      3  C   UNL     1      17.172  33.713  12.969  0.00  0.00    +0.042 A 
ATOM      4  C   UNL     1      15.805  33.870  13.222  0.00  0.00    +0.076 A 
ATOM      5  C   UNL     1      14.901  33.353  12.306  0.00  0.00    +0.030 A 
ATOM      6  C   UNL     1      15.317  32.676  11.151  0.00  0.00    +0.025 A 
ATOM      7  N   UNL     1      15.328  34.468  14.310  0.00  0.00    -0.235 NA
ATOM      8  C   UNL     1      16.227  34.910  15.197  0.00  0.00    +0.223 A 
ATOM      9  N   UNL     1      17.552  34.818  15.070  0.00  0.00    -0.220 NA
ATOM     10  C   UNL     1      18.027  34.242  13.953  0.00  0.00    +0.134 A 
ATOM     11  N   UNL     1      19.426  34.185  13.773  0.00  0.00    -0.299 N 
ATOM     12  H   UNL     1      19.726  34.603  12.903  0.00  0.00    +0.154 HD
ENDROOT
BRANCH   1  19
ATOM     13  C   UNL     1      13.662  30.127   7.206  0.00  0.00    +0.089 C 
ATOM     14  C   UNL     1      14.981  30.864   7.167  0.00  0.00    +0.299 C 
ATOM     15  C   UNL     1      16.198  29.958   7.106  0.00  0.00    +0.311 C 
ATOM     16  O   UNL     1      17.184  30.590   7.944  0.00  0.00    -0.425 OA
ATOM     17  C   UNL     1      16.478  31.354   8.787  0.00  0.00    +0.444 C 
ATOM     18  N   UNL     1      15.225  31.546   8.428  0.00  0.00    -0.190 N 
ATOM     19  N   UNL     1      17.154  31.817   9.809  0.00  0.00    -0.229 N 
ATOM     20  H   UNL     1      14.617  32.193   8.908  0.00  0.00    +0.451 HD
ATOM     21  H   UNL     1      18.149  31.620   9.756  0.00  0.00    +0.161 HD
ENDBRANCH   1  19
BRANCH  11  22
ATOM     22  C   UNL     1      20.422  34.142  14.768  0.00  0.00    +0.034 A 
ATOM     23  C   UNL     1      21.200  35.264  15.089  0.00  0.00    +0.047 A 
ATOM     24  C   UNL     1      22.182  35.199  16.082  0.00  0.00    +0.084 A 
ATOM     25  C   UNL     1      22.425  33.993  16.742  0.00  0.00    +0.139 A 
ATOM     26  C   UNL     1      21.625  32.883  16.468  0.00  0.00    +0.049 A 
ATOM     27  C   UNL     1      20.632  32.958  15.488  0.00  0.00    +0.027 A 
ATOM     28 CL   UNL     1      23.021  36.653  16.491  0.00  0.00    -0.080 Cl
BRANCH  25  29
ATOM     29  O   UNL     1      23.370  33.841  17.723  0.00  0.00    -0.484 OA
BRANCH  29  30
ATOM     30  C   UNL     1      22.811  33.365  18.963  0.00  0.00    +0.291 C 
BRANCH  30  31
ATOM     31  C   UNL     1      22.677  34.501  19.937  0.00  0.00    +0.116 A 
ATOM     32  N   UNL     1      21.755  35.442  19.856  0.00  0.00    -0.249 NA
ATOM     33  C   UNL     1      21.891  36.321  20.911  0.00  0.00    +0.119 A 
ATOM     34  C   UNL     1      22.920  36.047  21.785  0.00  0.00    +0.066 A 
ATOM     35  S   UNL     1      23.751  34.637  21.276  0.00  0.00    -0.077 S 
ENDBRANCH  30  31
ENDBRANCH  29  30
ENDBRANCH  25  29
ENDBRANCH  11  22
TORSDOF 5
ENDMDL
