REMARK  Name = =
REMARK  0 active torsions:
REMARK  status: ('A' for Active; 'I' for Inactive)
REMARK                            x       y       z     vdW  Elec       q    Type
REMARK                         _______ _______ _______ _____ _____    ______ ____
ROOT
ATOM      1  C   UNL     1      17.949  29.231   5.463  0.00  0.00    +0.001 C 
ATOM      2  C   UNL     1      18.242  30.278   6.327  0.00  0.00    +0.002 C 
ATOM      3  C   UNL     1      17.234  30.819   7.131  0.00  0.00    +0.028 C 
ATOM      4  C   UNL     1      15.929  30.342   7.096  0.00  0.00    +0.076 C 
ATOM      5  C   UNL     1      15.625  29.290   6.220  0.00  0.00    +0.040 C 
ATOM      6  C   UNL     1      16.647  28.735   5.409  0.00  0.00    +0.013 C 
ATOM      7  C   UNL     1      14.289  28.867   6.236  0.00  0.00    +0.127 C 
ATOM      8  N   UNL     1      13.364  29.396   7.047  0.00  0.00    -0.221 NA
ATOM      9  C   UNL     1      13.778  30.393   7.838  0.00  0.00    +0.223 C 
ATOM     10  N   UNL     1      15.015  30.899   7.897  0.00  0.00    -0.235 NA
ATOM     11  N   UNL     1      13.833  27.828   5.438  0.00  0.00    -0.343 N 
ATOM     12  H   UNL     1      14.133  27.825   4.475  0.00  0.00    +0.144 HD
ATOM     13  H   UNL     1      12.849  27.640   5.599  0.00  0.00    +0.144 HD
ENDROOT
TORSDOF 0
