REMARK  Name = 
REMARK  9 active torsions:
REMARK  status: ('A' for Active; 'I' for Inactive)
REMARK    1  A    between atoms: C_1  and  O_2
REMARK    2  A    between atoms: O_2  and  C_3
REMARK    3  A    between atoms: C_3  and  C_4
REMARK    4  A    between atoms: C_4  and  O_5
REMARK    5  A    between atoms: O_5  and  C_6
REMARK    6  A    between atoms: C_9  and  N_12
REMARK    7  A    between atoms: N_19  and  C_20
REMARK    8  A    between atoms: C_22  and  N_26
REMARK    9  A    between atoms: C_27  and  C_29
REMARK                            x       y       z     vdW  Elec       q    Type
REMARK                         _______ _______ _______ _____ _____    ______ ____
ROOT
ATOM      1  N   UNL     1       0.151   3.674  -1.584  0.00  0.00    -0.284 N 
ATOM      2  C   UNL     1      -0.259   4.691  -2.439  0.00  0.00    +0.221 A 
ATOM      3  N   UNL     1      -1.035   4.455  -3.508  0.00  0.00    -0.220 NA
ATOM      4  C   UNL     1      -1.390   5.517  -4.255  0.00  0.00    +0.156 A 
ATOM      5  C   UNL     1      -0.997   6.797  -3.969  0.00  0.00    +0.181 A 
ATOM      6  C   UNL     1      -0.197   6.973  -2.855  0.00  0.00    +0.164 A 
ATOM      7  N   UNL     1       0.173   5.919  -2.098  0.00  0.00    -0.196 NA
ATOM      8  N   UNL     1       0.246   8.279  -2.549  0.00  0.00    -0.297 N 
ATOM      9  F   UNL     1      -1.382   7.830  -4.732  0.00  0.00    -0.200 F 
ATOM     10  H   UNL     1       0.684   4.078  -0.828  0.00  0.00    +0.155 HD
ATOM     11  H   UNL     1      -0.359   8.996  -2.931  0.00  0.00    +0.154 HD
ENDROOT
BRANCH   1  15
ATOM     12  C   UNL     1      -0.301  -0.533  -1.388  0.00  0.00    +0.121 A 
ATOM     13  C   UNL     1      -0.784   0.170  -2.492  0.00  0.00    +0.047 A 
ATOM     14  C   UNL     1      -0.649   1.562  -2.577  0.00  0.00    +0.027 A 
ATOM     15  C   UNL     1      -0.016   2.287  -1.567  0.00  0.00    +0.034 A 
ATOM     16  C   UNL     1       0.470   1.566  -0.465  0.00  0.00    +0.027 A 
ATOM     17  C   UNL     1       0.332   0.174  -0.374  0.00  0.00    +0.047 A 
BRANCH  12  18
ATOM     18  O   UNL     1      -0.496  -1.882  -1.443  0.00  0.00    -0.490 OA
BRANCH  18  19
ATOM     19  C   UNL     1      -0.268  -2.670  -0.269  0.00  0.00    +0.257 C 
BRANCH  19  20
ATOM     20  C   UNL     1       1.121  -3.312  -0.297  0.00  0.00    +0.200 C 
BRANCH  20  22
ATOM     21  C   UNL     1       3.405  -2.951   0.174  0.00  0.00    +0.194 C 
ATOM     22  O   UNL     1       2.087  -2.428   0.279  0.00  0.00    -0.380 OA
ENDBRANCH  20  22
ENDBRANCH  19  20
ENDBRANCH  18  19
ENDBRANCH  12  18
ENDBRANCH   1  15
BRANCH   8  23
ATOM     23  C   UNL     1       1.258   8.741  -1.690  0.00  0.00    +0.034 A 
ATOM     24  C   UNL     1       1.234  10.087  -1.276  0.00  0.00    +0.046 A 
ATOM     25  C   UNL     1       2.211  10.610  -0.422  0.00  0.00    +0.035 A 
ATOM     26  C   UNL     1       3.207   9.757   0.063  0.00  0.00    +0.023 A 
ATOM     27  C   UNL     1       3.249   8.423  -0.335  0.00  0.00    +0.004 A 
ATOM     28  C   UNL     1       2.283   7.923  -1.209  0.00  0.00    +0.023 A 
BRANCH  25  29
ATOM     29  N   UNL     1       2.231  11.936   0.049  0.00  0.00    -0.282 N 
ATOM     30  C   UNL     1       1.579  13.070  -0.333  0.00  0.00    +0.241 C 
ATOM     31  O   UNL     1       1.547  14.042   0.422  0.00  0.00    -0.271 OA
ATOM     32  H   UNL     1       2.800  12.108   0.870  0.00  0.00    +0.155 HD
BRANCH  30  33
ATOM     33  C   UNL     1       0.948  13.193  -1.664  0.00  0.00    +0.060 C 
ATOM     34  C   UNL     1       1.626  12.960  -2.796  0.00  0.00    +0.013 C 
ENDBRANCH  30  33
ENDBRANCH  25  29
ENDBRANCH   8  23
TORSDOF 8
