MODEL 1
REMARK minimizedAffinity -8.36501789
REMARK minimizedRMSD -1
REMARK  Name = 
REMARK  6 active torsions:
REMARK  status: ('A' for Active; 'I' for Inactive)
REMARK    1  A    between atoms: C_1  and  C_2
REMARK    2  A    between atoms: C_4  and  C_25
REMARK    3  A    between atoms: C_5  and  N_9
REMARK    4  A    between atoms: C_6  and  C_8
REMARK    5  A    between atoms: N_16  and  C_17
REMARK    6  A    between atoms: C_20  and  C_23
REMARK                            x       y       z     vdW  Elec       q    Type
REMARK                         _______ _______ _______ _____ _____    ______ ____
ROOT
ATOM      1  N   UNL     1      18.337  33.802  14.491  0.00  0.00    -0.299 N 
ATOM      2  C   UNL     1      19.223  34.857  14.706  0.00  0.00    +0.128 A 
ATOM      3  N   UNL     1      20.518  34.600  14.459  0.00  0.00    -0.199 NA
ATOM      4  C   UNL     1      21.411  35.579  14.654  0.00  0.00    +0.221 A 
ATOM      5  N   UNL     1      21.081  36.801  15.099  0.00  0.00    -0.223 NA
ATOM      6  C   UNL     1      19.780  37.028  15.345  0.00  0.00    +0.118 A 
ATOM      7  C   UNL     1      18.801  36.085  15.164  0.00  0.00    +0.063 A 
ATOM      8  N   UNL     1      22.771  35.393  14.417  0.00  0.00    -0.284 N 
ATOM      9  H   UNL     1      18.811  32.962  14.186  0.00  0.00    +0.154 HD
ATOM     10  H   UNL     1      23.260  36.239  14.669  0.00  0.00    +0.155 HD
ENDROOT
BRANCH   1  15
ATOM     11  C   UNL     1      12.642  33.994  13.906  0.00  0.00    +0.044 C 
ATOM     12  C   UNL     1      14.131  33.906  14.064  0.00  0.00    -0.050 A 
ATOM     13  C   UNL     1      14.709  33.978  15.335  0.00  0.00    +0.008 A 
ATOM     14  C   UNL     1      16.104  33.946  15.503  0.00  0.00    -0.029 A 
ATOM     15  C   UNL     1      16.938  33.793  14.374  0.00  0.00    +0.038 A 
ATOM     16  C   UNL     1      16.359  33.772  13.086  0.00  0.00    -0.029 A 
ATOM     17  C   UNL     1      14.963  33.823  12.946  0.00  0.00    +0.008 A 
ATOM     18  C   UNL     1      17.219  33.671  11.854  0.00  0.00    +0.045 C 
ATOM     19  C   UNL     1      16.659  34.063  16.897  0.00  0.00    +0.045 C 
ENDBRANCH   1  15
BRANCH   8  20
ATOM     20  C   UNL     1      23.530  34.341  13.897  0.00  0.00    +0.034 A 
ATOM     21  C   UNL     1      23.316  33.775  12.635  0.00  0.00    +0.024 A 
ATOM     22  C   UNL     1      24.099  32.710  12.171  0.00  0.00    +0.020 A 
ATOM     23  C   UNL     1      25.114  32.184  12.971  0.00  0.00    +0.052 A 
ATOM     24  C   UNL     1      25.340  32.729  14.235  0.00  0.00    +0.020 A 
ATOM     25  C   UNL     1      24.553  33.795  14.689  0.00  0.00    +0.024 A 
BRANCH  23  26
ATOM     26  C   UNL     1      25.916  31.094  12.499  0.00  0.00    +0.099 C 
ATOM     27  N   UNL     1      26.566  30.211  12.117  0.00  0.00    -0.191 NA
ENDBRANCH  23  26
ENDBRANCH   8  20
TORSDOF 3
ENDMDL
MODEL 2
REMARK minimizedAffinity -8.16991615
REMARK minimizedRMSD -1
REMARK  Name = 
REMARK  6 active torsions:
REMARK  status: ('A' for Active; 'I' for Inactive)
REMARK    1  A    between atoms: C_1  and  C_2
REMARK    2  A    between atoms: C_4  and  C_25
REMARK    3  A    between atoms: C_5  and  N_9
REMARK    4  A    between atoms: C_6  and  C_8
REMARK    5  A    between atoms: N_16  and  C_17
REMARK    6  A    between atoms: C_20  and  C_23
REMARK                            x       y       z     vdW  Elec       q    Type
REMARK                         _______ _______ _______ _____ _____    ______ ____
ROOT
ATOM      1  N   UNL     1      18.344  33.904  14.372  0.00  0.00    -0.299 N 
ATOM      2  C   UNL     1      19.248  34.926  14.662  0.00  0.00    +0.128 A 
ATOM      3  N   UNL     1      20.543  34.645  14.446  0.00  0.00    -0.199 NA
ATOM      4  C   UNL     1      21.454  35.591  14.713  0.00  0.00    +0.221 A 
ATOM      5  N   UNL     1      21.139  36.801  15.201  0.00  0.00    -0.223 NA
ATOM      6  C   UNL     1      19.837  37.051  15.414  0.00  0.00    +0.118 A 
ATOM      7  C   UNL     1      18.842  36.143  15.159  0.00  0.00    +0.063 A 
ATOM      8  N   UNL     1      22.816  35.379  14.512  0.00  0.00    -0.284 N 
ATOM      9  H   UNL     1      18.806  33.066  14.046  0.00  0.00    +0.154 HD
ATOM     10  H   UNL     1      23.317  36.200  14.818  0.00  0.00    +0.155 HD
ENDROOT
BRANCH   1  15
ATOM     11  C   UNL     1      12.643  33.811  13.815  0.00  0.00    +0.044 C 
ATOM     12  C   UNL     1      14.135  33.873  13.956  0.00  0.00    -0.050 A 
ATOM     13  C   UNL     1      14.953  33.795  12.824  0.00  0.00    +0.008 A 
ATOM     14  C   UNL     1      16.354  33.804  12.937  0.00  0.00    -0.029 A 
ATOM     15  C   UNL     1      16.949  33.937  14.209  0.00  0.00    +0.038 A 
ATOM     16  C   UNL     1      16.127  33.964  15.357  0.00  0.00    -0.029 A 
ATOM     17  C   UNL     1      14.730  33.937  15.217  0.00  0.00    +0.008 A 
ATOM     18  C   UNL     1      16.727  34.045  16.736  0.00  0.00    +0.045 C 
ATOM     19  C   UNL     1      17.172  33.682  11.679  0.00  0.00    +0.045 C 
ENDBRANCH   1  15
BRANCH   8  20
ATOM     20  C   UNL     1      23.565  34.331  13.972  0.00  0.00    +0.034 A 
ATOM     21  C   UNL     1      23.332  33.777  12.708  0.00  0.00    +0.024 A 
ATOM     22  C   UNL     1      24.106  32.715  12.223  0.00  0.00    +0.020 A 
ATOM     23  C   UNL     1      25.132  32.180  13.003  0.00  0.00    +0.052 A 
ATOM     24  C   UNL     1      25.378  32.713  14.269  0.00  0.00    +0.020 A 
ATOM     25  C   UNL     1      24.599  33.775  14.744  0.00  0.00    +0.024 A 
BRANCH  23  26
ATOM     26  C   UNL     1      25.925  31.092  12.509  0.00  0.00    +0.099 C 
ATOM     27  N   UNL     1      26.566  30.211  12.110  0.00  0.00    -0.191 NA
ENDBRANCH  23  26
ENDBRANCH   8  20
TORSDOF 3
ENDMDL
MODEL 3
REMARK minimizedAffinity -7.58375883
REMARK minimizedRMSD -1
REMARK  Name = 
REMARK  6 active torsions:
REMARK  status: ('A' for Active; 'I' for Inactive)
REMARK    1  A    between atoms: C_1  and  C_2
REMARK    2  A    between atoms: C_4  and  C_25
REMARK    3  A    between atoms: C_5  and  N_9
REMARK    4  A    between atoms: C_6  and  C_8
REMARK    5  A    between atoms: N_16  and  C_17
REMARK    6  A    between atoms: C_20  and  C_23
REMARK                            x       y       z     vdW  Elec       q    Type
REMARK                         _______ _______ _______ _____ _____    ______ ____
ROOT
ATOM      1  N   UNL     1      18.104  34.791  15.205  0.00  0.00    -0.299 N 
ATOM      2  C   UNL     1      18.922  33.861  14.564  0.00  0.00    +0.128 A 
ATOM      3  N   UNL     1      18.548  33.504  13.324  0.00  0.00    -0.199 NA
ATOM      4  C   UNL     1      19.297  32.609  12.665  0.00  0.00    +0.221 A 
ATOM      5  N   UNL     1      20.394  32.038  13.187  0.00  0.00    -0.223 NA
ATOM      6  C   UNL     1      20.739  32.408  14.432  0.00  0.00    +0.118 A 
ATOM      7  C   UNL     1      20.034  33.322  15.170  0.00  0.00    +0.063 A 
ATOM      8  N   UNL     1      18.979  32.191  11.375  0.00  0.00    -0.284 N 
ATOM      9  H   UNL     1      17.313  35.062  14.636  0.00  0.00    +0.154 HD
ATOM     10  H   UNL     1      19.646  31.489  11.091  0.00  0.00    +0.155 HD
ENDROOT
BRANCH   1  15
ATOM     11  C   UNL     1      19.279  37.897  19.872  0.00  0.00    +0.044 C 
ATOM     12  C   UNL     1      18.943  37.108  18.642  0.00  0.00    -0.050 A 
ATOM     13  C   UNL     1      18.007  36.071  18.706  0.00  0.00    +0.008 A 
ATOM     14  C   UNL     1      17.711  35.287  17.578  0.00  0.00    -0.029 A 
ATOM     15  C   UNL     1      18.335  35.577  16.346  0.00  0.00    +0.038 A 
ATOM     16  C   UNL     1      19.319  36.589  16.291  0.00  0.00    -0.029 A 
ATOM     17  C   UNL     1      19.607  37.346  17.438  0.00  0.00    +0.008 A 
ATOM     18  C   UNL     1      20.050  36.888  15.010  0.00  0.00    +0.045 C 
ATOM     19  C   UNL     1      16.718  34.165  17.727  0.00  0.00    +0.045 C 
ENDBRANCH   1  15
BRANCH   8  20
ATOM     20  C   UNL     1      18.001  32.562  10.449  0.00  0.00    +0.034 A 
ATOM     21  C   UNL     1      17.247  33.737  10.539  0.00  0.00    +0.024 A 
ATOM     22  C   UNL     1      16.266  34.050   9.588  0.00  0.00    +0.020 A 
ATOM     23  C   UNL     1      16.018  33.181   8.525  0.00  0.00    +0.052 A 
ATOM     24  C   UNL     1      16.754  32.001   8.418  0.00  0.00    +0.020 A 
ATOM     25  C   UNL     1      17.733  31.698   9.374  0.00  0.00    +0.024 A 
BRANCH  23  26
ATOM     26  C   UNL     1      15.015  33.499   7.551  0.00  0.00    +0.099 C 
ATOM     27  N   UNL     1      14.203  33.755   6.762  0.00  0.00    -0.191 NA
ENDBRANCH  23  26
ENDBRANCH   8  20
TORSDOF 3
ENDMDL
MODEL 4
REMARK minimizedAffinity -7.58133888
REMARK minimizedRMSD -1
REMARK  Name = 
REMARK  6 active torsions:
REMARK  status: ('A' for Active; 'I' for Inactive)
REMARK    1  A    between atoms: C_1  and  C_2
REMARK    2  A    between atoms: C_4  and  C_25
REMARK    3  A    between atoms: C_5  and  N_9
REMARK    4  A    between atoms: C_6  and  C_8
REMARK    5  A    between atoms: N_16  and  C_17
REMARK    6  A    between atoms: C_20  and  C_23
REMARK                            x       y       z     vdW  Elec       q    Type
REMARK                         _______ _______ _______ _____ _____    ______ ____
ROOT
ATOM      1  N   UNL     1      19.319  33.478  14.803  0.00  0.00    -0.299 N 
ATOM      2  C   UNL     1      19.888  34.667  15.258  0.00  0.00    +0.128 A 
ATOM      3  N   UNL     1      20.945  34.538  16.078  0.00  0.00    -0.199 NA
ATOM      4  C   UNL     1      21.526  35.650  16.548  0.00  0.00    +0.221 A 
ATOM      5  N   UNL     1      21.098  36.888  16.253  0.00  0.00    -0.223 NA
ATOM      6  C   UNL     1      20.034  36.986  15.438  0.00  0.00    +0.118 A 
ATOM      7  C   UNL     1      19.387  35.900  14.907  0.00  0.00    +0.063 A 
ATOM      8  N   UNL     1      22.628  35.601  17.398  0.00  0.00    -0.284 N 
ATOM      9  H   UNL     1      19.785  32.662  15.178  0.00  0.00    +0.154 HD
ATOM     10  H   UNL     1      22.873  36.545  17.661  0.00  0.00    +0.155 HD
ENDROOT
BRANCH   1  15
ATOM     11  C   UNL     1      15.737  32.720  10.398  0.00  0.00    +0.044 C 
ATOM     12  C   UNL     1      16.671  32.881  11.560  0.00  0.00    -0.050 A 
ATOM     13  C   UNL     1      16.169  33.175  12.831  0.00  0.00    +0.008 A 
ATOM     14  C   UNL     1      17.028  33.378  13.925  0.00  0.00    -0.029 A 
ATOM     15  C   UNL     1      18.422  33.239  13.750  0.00  0.00    +0.038 A 
ATOM     16  C   UNL     1      18.934  32.994  12.457  0.00  0.00    -0.029 A 
ATOM     17  C   UNL     1      18.054  32.813  11.378  0.00  0.00    +0.008 A 
ATOM     18  C   UNL     1      20.418  32.899  12.219  0.00  0.00    +0.045 C 
ATOM     19  C   UNL     1      16.420  33.725  15.257  0.00  0.00    +0.045 C 
ENDBRANCH   1  15
BRANCH   8  20
ATOM     20  C   UNL     1      23.425  34.567  17.894  0.00  0.00    +0.034 A 
ATOM     21  C   UNL     1      23.121  33.829  19.043  0.00  0.00    +0.024 A 
ATOM     22  C   UNL     1      23.967  32.812  19.503  0.00  0.00    +0.020 A 
ATOM     23  C   UNL     1      25.146  32.518  18.819  0.00  0.00    +0.052 A 
ATOM     24  C   UNL     1      25.474  33.245  17.674  0.00  0.00    +0.020 A 
ATOM     25  C   UNL     1      24.620  34.259  17.222  0.00  0.00    +0.024 A 
BRANCH  23  26
ATOM     26  C   UNL     1      26.015  31.478  19.289  0.00  0.00    +0.099 C 
ATOM     27  N   UNL     1      26.718  30.635  19.668  0.00  0.00    -0.191 NA
ENDBRANCH  23  26
ENDBRANCH   8  20
TORSDOF 3
ENDMDL
MODEL 5
REMARK minimizedAffinity -7.54151678
REMARK minimizedRMSD -1
REMARK  Name = 
REMARK  6 active torsions:
REMARK  status: ('A' for Active; 'I' for Inactive)
REMARK    1  A    between atoms: C_1  and  C_2
REMARK    2  A    between atoms: C_4  and  C_25
REMARK    3  A    between atoms: C_5  and  N_9
REMARK    4  A    between atoms: C_6  and  C_8
REMARK    5  A    between atoms: N_16  and  C_17
REMARK    6  A    between atoms: C_20  and  C_23
REMARK                            x       y       z     vdW  Elec       q    Type
REMARK                         _______ _______ _______ _____ _____    ______ ____
ROOT
ATOM      1  N   UNL     1      17.872  36.942  17.013  0.00  0.00    -0.299 N 
ATOM      2  C   UNL     1      18.605  37.056  18.193  0.00  0.00    +0.128 A 
ATOM      3  N   UNL     1      18.385  38.165  18.919  0.00  0.00    -0.199 NA
ATOM      4  C   UNL     1      19.068  38.326  20.060  0.00  0.00    +0.221 A 
ATOM      5  N   UNL     1      19.973  37.442  20.509  0.00  0.00    -0.223 NA
ATOM      6  C   UNL     1      20.178  36.347  19.759  0.00  0.00    +0.118 A 
ATOM      7  C   UNL     1      19.516  36.101  18.584  0.00  0.00    +0.063 A 
ATOM      8  N   UNL     1      18.894  39.445  20.871  0.00  0.00    -0.284 N 
ATOM      9  H   UNL     1      17.272  37.742  16.856  0.00  0.00    +0.154 HD
ATOM     10  H   UNL     1      19.534  39.382  21.648  0.00  0.00    +0.155 HD
ENDROOT
BRANCH   1  15
ATOM     11  C   UNL     1      16.882  32.572  13.444  0.00  0.00    +0.044 C 
ATOM     12  C   UNL     1      17.159  33.692  14.402  0.00  0.00    -0.050 A 
ATOM     13  C   UNL     1      16.256  33.977  15.431  0.00  0.00    +0.008 A 
ATOM     14  C   UNL     1      16.471  35.052  16.311  0.00  0.00    -0.029 A 
ATOM     15  C   UNL     1      17.640  35.832  16.185  0.00  0.00    +0.038 A 
ATOM     16  C   UNL     1      18.526  35.579  15.115  0.00  0.00    -0.029 A 
ATOM     17  C   UNL     1      18.279  34.510  14.240  0.00  0.00    +0.008 A 
ATOM     18  C   UNL     1      19.753  36.428  14.911  0.00  0.00    +0.045 C 
ATOM     19  C   UNL     1      15.440  35.321  17.375  0.00  0.00    +0.045 C 
ENDBRANCH   1  15
BRANCH   8  20
ATOM     20  C   UNL     1      18.035  40.546  20.833  0.00  0.00    +0.034 A 
ATOM     21  C   UNL     1      16.880  40.662  21.615  0.00  0.00    +0.024 A 
ATOM     22  C   UNL     1      16.046  41.783  21.523  0.00  0.00    +0.020 A 
ATOM     23  C   UNL     1      16.351  42.814  20.635  0.00  0.00    +0.052 A 
ATOM     24  C   UNL     1      17.494  42.718  19.841  0.00  0.00    +0.020 A 
ATOM     25  C   UNL     1      18.323  41.593  19.941  0.00  0.00    +0.024 A 
BRANCH  23  26
ATOM     26  C   UNL     1      15.498  43.963  20.539  0.00  0.00    +0.099 C 
ATOM     27  N   UNL     1      14.807  44.892  20.461  0.00  0.00    -0.191 NA
ENDBRANCH  23  26
ENDBRANCH   8  20
TORSDOF 3
ENDMDL
