REMARK  Name = =
REMARK  4 active torsions:
REMARK  status: ('A' for Active; 'I' for Inactive)
REMARK    1  A    between atoms: N_1  and  C_2
REMARK    2  A    between atoms: N_1  and  C_15
REMARK    3  A    between atoms: N_8  and  C_20
REMARK    4  A    between atoms: C_23  and  C_26
REMARK                            x       y       z     vdW  Elec       q    Type
REMARK                         _______ _______ _______ _____ _____    ______ ____
ROOT
ATOM      1  C   UNL     1      18.605  37.056  18.193  0.00  0.00    +0.128 C 
ATOM      2  N   UNL     1      18.385  38.165  18.919  0.00  0.00    -0.199 NA
ATOM      3  C   UNL     1      19.068  38.326  20.060  0.00  0.00    +0.221 C 
ATOM      4  N   UNL     1      19.973  37.442  20.509  0.00  0.00    -0.223 NA
ATOM      5  C   UNL     1      20.178  36.347  19.759  0.00  0.00    +0.118 C 
ATOM      6  C   UNL     1      19.516  36.101  18.584  0.00  0.00    +0.063 C 
ATOM      7  N   UNL     1      18.894  39.445  20.871  0.00  0.00    -0.284 N 
ATOM      8  H   UNL     1      19.534  39.382  21.648  0.00  0.00    +0.155 HD
ENDROOT
BRANCH   7   9
ATOM      9  C   UNL     1      18.035  40.546  20.833  0.00  0.00    +0.034 C 
ATOM     10  C   UNL     1      16.880  40.662  21.615  0.00  0.00    +0.024 C 
ATOM     11  C   UNL     1      16.046  41.783  21.523  0.00  0.00    +0.020 C 
ATOM     12  C   UNL     1      16.351  42.814  20.635  0.00  0.00    +0.052 C 
ATOM     13  C   UNL     1      17.494  42.718  19.841  0.00  0.00    +0.020 C 
ATOM     14  C   UNL     1      18.323  41.593  19.941  0.00  0.00    +0.024 C 
BRANCH  12  15
ATOM     15  C   UNL     1      15.498  43.963  20.539  0.00  0.00    +0.099 C 
ATOM     16  N   UNL     1      14.807  44.892  20.461  0.00  0.00    -0.191 NA
ENDBRANCH  12  15
ENDBRANCH   7   9
BRANCH   1  17
ATOM     17  N   UNL     1      17.872  36.942  17.013  0.00  0.00    -0.299 N 
ATOM     18  H   UNL     1      17.272  37.742  16.856  0.00  0.00    +0.154 HD
BRANCH  17  23
ATOM     19  C   UNL     1      16.882  32.572  13.444  0.00  0.00    +0.044 C 
ATOM     20  C   UNL     1      17.159  33.692  14.402  0.00  0.00    -0.050 C 
ATOM     21  C   UNL     1      16.256  33.977  15.431  0.00  0.00    +0.008 C 
ATOM     22  C   UNL     1      16.471  35.052  16.311  0.00  0.00    -0.029 C 
ATOM     23  C   UNL     1      17.640  35.832  16.185  0.00  0.00    +0.038 C 
ATOM     24  C   UNL     1      18.526  35.579  15.115  0.00  0.00    -0.029 C 
ATOM     25  C   UNL     1      18.279  34.510  14.240  0.00  0.00    +0.008 C 
ATOM     26  C   UNL     1      19.753  36.428  14.911  0.00  0.00    +0.045 C 
ATOM     27  C   UNL     1      15.440  35.321  17.375  0.00  0.00    +0.045 C 
ENDBRANCH  17  23
ENDBRANCH   1  17
TORSDOF 4
