MODEL 1
REMARK minimizedAffinity -7.42705536
REMARK minimizedRMSD -1
REMARK  Name = 
REMARK  8 active torsions:
REMARK  status: ('A' for Active; 'I' for Inactive)
REMARK    1  A    between atoms: C_1  and  C_2
REMARK    2  A    between atoms: C_2  and  N_3
REMARK    3  A    between atoms: C_4  and  C_6
REMARK    4  A    between atoms: C_6  and  C_7
REMARK    5  A    between atoms: C_11  and  C_30
REMARK    6  A    between atoms: C_16  and  O_19
REMARK    7  A    between atoms: O_19  and  C_20
REMARK    8  A    between atoms: C_21  and  C_23
REMARK                            x       y       z     vdW  Elec       q    Type
REMARK                         _______ _______ _______ _____ _____    ______ ____
ROOT
ATOM      1  C   UNL     1      20.363  32.832  13.798  0.00  0.00    +0.182 C 
ATOM      2  C   UNL     1      20.629  34.275  14.043  0.00  0.00    +0.163 A 
ATOM      3  N   UNL     1      21.820  34.827  14.158  0.00  0.00    -0.132 NA
ATOM      4  N   UNL     1      21.649  36.151  14.435  0.00  0.00    -0.134 NA
ATOM      5  C   UNL     1      20.356  36.399  14.482  0.00  0.00    +0.135 A 
ATOM      6  N   UNL     1      19.653  35.224  14.257  0.00  0.00    -0.281 N 
ATOM      7  C   UNL     1      18.258  34.985  14.285  0.00  0.00    +0.059 A 
ATOM      8  C   UNL     1      17.666  34.004  13.475  0.00  0.00    +0.028 A 
ATOM      9  C   UNL     1      16.292  33.735  13.621  0.00  0.00    +0.057 A 
ATOM     10  C   UNL     1      15.506  34.437  14.536  0.00  0.00    +0.121 A 
ATOM     11  C   UNL     1      16.094  35.423  15.319  0.00  0.00    +0.048 A 
ATOM     12  C   UNL     1      17.461  35.692  15.200  0.00  0.00    +0.030 A 
ATOM     13  C   UNL     1      18.400  33.215  12.432  0.00  0.00    +0.076 C 
ATOM     14  N   UNL     1      19.555  32.662  12.585  0.00  0.00    -0.271 NA
ATOM     15  C   UNL     1      19.779  37.757  14.626  0.00  0.00    +0.088 C 
ENDROOT
BRANCH  13  16
ATOM     16  C   UNL     1      17.745  33.031  11.096  0.00  0.00    +0.001 A 
ATOM     17  C   UNL     1      17.887  31.834  10.381  0.00  0.00    +0.011 A 
ATOM     18  C   UNL     1      17.262  31.685   9.139  0.00  0.00    +0.020 A 
ATOM     19  C   UNL     1      16.491  32.725   8.620  0.00  0.00    +0.041 A 
ATOM     20  C   UNL     1      16.330  33.911   9.335  0.00  0.00    +0.020 A 
ATOM     21  C   UNL     1      16.952  34.063  10.577  0.00  0.00    +0.011 A 
ATOM     22 CL   UNL     1      15.727  32.539   7.090  0.00  0.00    -0.084 Cl
ENDBRANCH  13  16
BRANCH  10  23
ATOM     23  O   UNL     1      14.192  34.063  14.566  0.00  0.00    -0.495 OA
ATOM     24  C   UNL     1      13.389  34.611  15.606  0.00  0.00    +0.277 C 
ENDBRANCH  10  23
BRANCH   1  25
ATOM     25  C   UNL     1      19.801  32.030  14.969  0.00  0.00    +0.130 C 
BRANCH  25  27
ATOM     26  N   UNL     1      19.535  32.927  17.279  0.00  0.00    -0.315 N 
ATOM     27  C   UNL     1      20.359  32.455  16.306  0.00  0.00    +0.215 C 
ATOM     28  O   UNL     1      21.569  32.386  16.528  0.00  0.00    -0.276 OA
ATOM     29  H   UNL     1      20.032  33.173  18.127  0.00  0.00    +0.149 HD
BRANCH  26  31
ATOM     30  C   UNL     1      17.660  34.123  18.297  0.00  0.00    +0.024 C 
ATOM     31  C   UNL     1      18.093  33.082  17.283  0.00  0.00    +0.101 C 
ENDBRANCH  26  31
ENDBRANCH  25  27
ENDBRANCH   1  25
TORSDOF 5
ENDMDL
MODEL 2
REMARK minimizedAffinity -6.99639177
REMARK minimizedRMSD -1
REMARK  Name = 
REMARK  8 active torsions:
REMARK  status: ('A' for Active; 'I' for Inactive)
REMARK    1  A    between atoms: C_1  and  C_2
REMARK    2  A    between atoms: C_2  and  N_3
REMARK    3  A    between atoms: C_4  and  C_6
REMARK    4  A    between atoms: C_6  and  C_7
REMARK    5  A    between atoms: C_11  and  C_30
REMARK    6  A    between atoms: C_16  and  O_19
REMARK    7  A    between atoms: O_19  and  C_20
REMARK    8  A    between atoms: C_21  and  C_23
REMARK                            x       y       z     vdW  Elec       q    Type
REMARK                         _______ _______ _______ _____ _____    ______ ____
ROOT
ATOM      1  C   UNL     1      20.613  33.198  15.200  0.00  0.00    +0.182 C 
ATOM      2  C   UNL     1      19.328  33.310  15.942  0.00  0.00    +0.163 A 
ATOM      3  N   UNL     1      18.264  32.557  15.751  0.00  0.00    -0.132 NA
ATOM      4  N   UNL     1      17.275  33.003  16.577  0.00  0.00    -0.134 NA
ATOM      5  C   UNL     1      17.744  34.020  17.270  0.00  0.00    +0.135 A 
ATOM      6  N   UNL     1      19.053  34.274  16.887  0.00  0.00    -0.281 N 
ATOM      7  C   UNL     1      19.932  35.305  17.298  0.00  0.00    +0.059 A 
ATOM      8  C   UNL     1      21.321  35.110  17.345  0.00  0.00    +0.028 A 
ATOM      9  C   UNL     1      22.154  36.200  17.657  0.00  0.00    +0.057 A 
ATOM     10  C   UNL     1      21.628  37.461  17.941  0.00  0.00    +0.121 A 
ATOM     11  C   UNL     1      20.251  37.642  17.916  0.00  0.00    +0.048 A 
ATOM     12  C   UNL     1      19.407  36.574  17.591  0.00  0.00    +0.030 A 
ATOM     13  C   UNL     1      21.996  33.793  17.097  0.00  0.00    +0.076 C 
ATOM     14  N   UNL     1      21.723  32.979  16.135  0.00  0.00    -0.271 NA
ATOM     15  C   UNL     1      17.003  34.683  18.370  0.00  0.00    +0.088 C 
ENDROOT
BRANCH  13  16
ATOM     16  C   UNL     1      23.095  33.378  18.029  0.00  0.00    +0.001 A 
ATOM     17  C   UNL     1      22.828  33.080  19.373  0.00  0.00    +0.011 A 
ATOM     18  C   UNL     1      23.869  32.690  20.220  0.00  0.00    +0.020 A 
ATOM     19  C   UNL     1      25.169  32.591  19.724  0.00  0.00    +0.041 A 
ATOM     20  C   UNL     1      25.438  32.868  18.384  0.00  0.00    +0.020 A 
ATOM     21  C   UNL     1      24.400  33.255  17.534  0.00  0.00    +0.011 A 
ATOM     22 CL   UNL     1      26.448  32.115  20.772  0.00  0.00    -0.084 Cl
ENDBRANCH  13  16
BRANCH  10  23
ATOM     23  O   UNL     1      22.561  38.419  18.223  0.00  0.00    -0.495 OA
ATOM     24  C   UNL     1      23.923  38.082  17.984  0.00  0.00    +0.277 C 
ENDBRANCH  10  23
BRANCH   1  25
ATOM     25  C   UNL     1      20.926  34.308  14.200  0.00  0.00    +0.130 C 
BRANCH  25  27
ATOM     26  N   UNL     1      22.724  33.682  12.593  0.00  0.00    -0.315 N 
ATOM     27  C   UNL     1      21.397  33.791  12.862  0.00  0.00    +0.215 C 
ATOM     28  O   UNL     1      20.581  33.467  11.996  0.00  0.00    -0.276 OA
ATOM     29  H   UNL     1      22.907  33.318  11.664  0.00  0.00    +0.149 HD
BRANCH  26  31
ATOM     30  C   UNL     1      24.580  32.686  13.836  0.00  0.00    +0.024 C 
ATOM     31  C   UNL     1      23.870  33.965  13.434  0.00  0.00    +0.101 C 
ENDBRANCH  26  31
ENDBRANCH  25  27
ENDBRANCH   1  25
TORSDOF 5
ENDMDL
MODEL 3
REMARK minimizedAffinity -6.92489243
REMARK minimizedRMSD -1
REMARK  Name = 
REMARK  8 active torsions:
REMARK  status: ('A' for Active; 'I' for Inactive)
REMARK    1  A    between atoms: C_1  and  C_2
REMARK    2  A    between atoms: C_2  and  N_3
REMARK    3  A    between atoms: C_4  and  C_6
REMARK    4  A    between atoms: C_6  and  C_7
REMARK    5  A    between atoms: C_11  and  C_30
REMARK    6  A    between atoms: C_16  and  O_19
REMARK    7  A    between atoms: O_19  and  C_20
REMARK    8  A    between atoms: C_21  and  C_23
REMARK                            x       y       z     vdW  Elec       q    Type
REMARK                         _______ _______ _______ _____ _____    ______ ____
ROOT
ATOM      1  C   UNL     1      21.548  36.927  16.535  0.00  0.00    +0.182 C 
ATOM      2  C   UNL     1      22.067  35.647  17.088  0.00  0.00    +0.163 A 
ATOM      3  N   UNL     1      23.321  35.244  17.040  0.00  0.00    -0.132 NA
ATOM      4  N   UNL     1      23.388  34.002  17.598  0.00  0.00    -0.134 NA
ATOM      5  C   UNL     1      22.178  33.658  17.988  0.00  0.00    +0.135 A 
ATOM      6  N   UNL     1      21.285  34.671  17.666  0.00  0.00    -0.281 N 
ATOM      7  C   UNL     1      19.880  34.721  17.822  0.00  0.00    +0.059 A 
ATOM      8  C   UNL     1      19.210  35.932  18.051  0.00  0.00    +0.028 A 
ATOM      9  C   UNL     1      17.803  35.938  18.091  0.00  0.00    +0.057 A 
ATOM     10  C   UNL     1      17.064  34.765  17.929  0.00  0.00    +0.121 A 
ATOM     11  C   UNL     1      17.735  33.565  17.725  0.00  0.00    +0.048 A 
ATOM     12  C   UNL     1      19.132  33.542  17.665  0.00  0.00    +0.030 A 
ATOM     13  C   UNL     1      19.897  37.247  18.278  0.00  0.00    +0.076 C 
ATOM     14  N   UNL     1      20.885  37.705  17.589  0.00  0.00    -0.271 NA
ATOM     15  C   UNL     1      21.876  32.430  18.761  0.00  0.00    +0.088 C 
ENDROOT
BRANCH  13  16
ATOM     16  C   UNL     1      19.396  38.122  19.388  0.00  0.00    +0.001 A 
ATOM     17  C   UNL     1      18.434  39.113  19.147  0.00  0.00    +0.011 A 
ATOM     18  C   UNL     1      17.979  39.913  20.199  0.00  0.00    +0.020 A 
ATOM     19  C   UNL     1      18.476  39.716  21.488  0.00  0.00    +0.041 A 
ATOM     20  C   UNL     1      19.418  38.718  21.737  0.00  0.00    +0.020 A 
ATOM     21  C   UNL     1      19.874  37.916  20.688  0.00  0.00    +0.011 A 
ATOM     22 CL   UNL     1      17.916  40.705  22.779  0.00  0.00    -0.084 Cl
ENDBRANCH  13  16
BRANCH  10  23
ATOM     23  O   UNL     1      15.709  34.930  17.989  0.00  0.00    -0.495 OA
ATOM     24  C   UNL     1      14.930  34.205  17.044  0.00  0.00    +0.277 C 
ENDBRANCH  10  23
BRANCH   1  25
ATOM     25  C   UNL     1      20.688  36.831  15.277  0.00  0.00    +0.130 C 
BRANCH  25  27
ATOM     26  N   UNL     1      20.357  34.764  13.926  0.00  0.00    -0.315 N 
ATOM     27  C   UNL     1      21.171  35.784  14.303  0.00  0.00    +0.215 C 
ATOM     28  O   UNL     1      22.314  35.840  13.843  0.00  0.00    -0.276 OA
ATOM     29  H   UNL     1      20.798  34.134  13.266  0.00  0.00    +0.149 HD
BRANCH  26  31
ATOM     30  C   UNL     1      18.492  33.206  13.645  0.00  0.00    +0.024 C 
ATOM     31  C   UNL     1      18.981  34.487  14.293  0.00  0.00    +0.101 C 
ENDBRANCH  26  31
ENDBRANCH  25  27
ENDBRANCH   1  25
TORSDOF 5
ENDMDL
MODEL 4
REMARK minimizedAffinity -6.90605974
REMARK minimizedRMSD -1
REMARK  Name = 
REMARK  8 active torsions:
REMARK  status: ('A' for Active; 'I' for Inactive)
REMARK    1  A    between atoms: C_1  and  C_2
REMARK    2  A    between atoms: C_2  and  N_3
REMARK    3  A    between atoms: C_4  and  C_6
REMARK    4  A    between atoms: C_6  and  C_7
REMARK    5  A    between atoms: C_11  and  C_30
REMARK    6  A    between atoms: C_16  and  O_19
REMARK    7  A    between atoms: O_19  and  C_20
REMARK    8  A    between atoms: C_21  and  C_23
REMARK                            x       y       z     vdW  Elec       q    Type
REMARK                         _______ _______ _______ _____ _____    ______ ____
ROOT
ATOM      1  C   UNL     1      21.098  36.852  18.687  0.00  0.00    +0.182 C 
ATOM      2  C   UNL     1      21.683  35.698  19.423  0.00  0.00    +0.163 A 
ATOM      3  N   UNL     1      22.089  35.714  20.676  0.00  0.00    -0.132 NA
ATOM      4  N   UNL     1      22.612  34.489  20.967  0.00  0.00    -0.134 NA
ATOM      5  C   UNL     1      22.517  33.734  19.893  0.00  0.00    +0.135 A 
ATOM      6  N   UNL     1      21.946  34.467  18.863  0.00  0.00    -0.281 N 
ATOM      7  C   UNL     1      21.713  34.104  17.515  0.00  0.00    +0.059 A 
ATOM      8  C   UNL     1      20.633  34.630  16.789  0.00  0.00    +0.028 A 
ATOM      9  C   UNL     1      20.512  34.319  15.422  0.00  0.00    +0.057 A 
ATOM     10  C   UNL     1      21.427  33.483  14.781  0.00  0.00    +0.121 A 
ATOM     11  C   UNL     1      22.481  32.946  15.511  0.00  0.00    +0.048 A 
ATOM     12  C   UNL     1      22.628  33.258  16.867  0.00  0.00    +0.030 A 
ATOM     13  C   UNL     1      19.568  35.507  17.379  0.00  0.00    +0.076 C 
ATOM     14  N   UNL     1      19.771  36.505  18.169  0.00  0.00    -0.271 NA
ATOM     15  C   UNL     1      22.860  32.292  19.863  0.00  0.00    +0.088 C 
ENDROOT
BRANCH  13  16
ATOM     16  C   UNL     1      18.141  35.220  17.019  0.00  0.00    +0.001 A 
ATOM     17  C   UNL     1      17.540  35.830  15.909  0.00  0.00    +0.011 A 
ATOM     18  C   UNL     1      16.209  35.543  15.591  0.00  0.00    +0.020 A 
ATOM     19  C   UNL     1      15.486  34.642  16.374  0.00  0.00    +0.041 A 
ATOM     20  C   UNL     1      16.084  34.018  17.468  0.00  0.00    +0.020 A 
ATOM     21  C   UNL     1      17.415  34.301  17.788  0.00  0.00    +0.011 A 
ATOM     22 CL   UNL     1      13.848  34.295  15.982  0.00  0.00    -0.084 Cl
ENDBRANCH  13  16
BRANCH  10  23
ATOM     23  O   UNL     1      21.180  33.276  13.454  0.00  0.00    -0.495 OA
ATOM     24  C   UNL     1      22.144  32.520  12.729  0.00  0.00    +0.277 C 
ENDBRANCH  10  23
BRANCH   1  25
ATOM     25  C   UNL     1      21.975  37.496  17.615  0.00  0.00    +0.130 C 
BRANCH  25  27
ATOM     26  N   UNL     1      24.422  37.525  18.086  0.00  0.00    -0.315 N 
ATOM     27  C   UNL     1      23.217  38.148  18.172  0.00  0.00    +0.215 C 
ATOM     28  O   UNL     1      23.151  39.251  18.718  0.00  0.00    -0.276 OA
ATOM     29  H   UNL     1      25.174  38.069  18.493  0.00  0.00    +0.149 HD
BRANCH  26  31
ATOM     30  C   UNL     1      25.467  35.348  18.476  0.00  0.00    +0.024 C 
ATOM     31  C   UNL     1      24.771  36.255  17.479  0.00  0.00    +0.101 C 
ENDBRANCH  26  31
ENDBRANCH  25  27
ENDBRANCH   1  25
TORSDOF 5
ENDMDL
MODEL 5
REMARK minimizedAffinity -6.81720304
REMARK minimizedRMSD -1
REMARK  Name = 
REMARK  8 active torsions:
REMARK  status: ('A' for Active; 'I' for Inactive)
REMARK    1  A    between atoms: C_1  and  C_2
REMARK    2  A    between atoms: C_2  and  N_3
REMARK    3  A    between atoms: C_4  and  C_6
REMARK    4  A    between atoms: C_6  and  C_7
REMARK    5  A    between atoms: C_11  and  C_30
REMARK    6  A    between atoms: C_16  and  O_19
REMARK    7  A    between atoms: O_19  and  C_20
REMARK    8  A    between atoms: C_21  and  C_23
REMARK                            x       y       z     vdW  Elec       q    Type
REMARK                         _______ _______ _______ _____ _____    ______ ____
ROOT
ATOM      1  C   UNL     1      20.484  36.085  18.084  0.00  0.00    +0.182 C 
ATOM      2  C   UNL     1      21.312  35.041  18.748  0.00  0.00    +0.163 A 
ATOM      3  N   UNL     1      21.349  34.801  20.043  0.00  0.00    -0.132 NA
ATOM      4  N   UNL     1      22.264  33.815  20.265  0.00  0.00    -0.134 NA
ATOM      5  C   UNL     1      22.774  33.456  19.105  0.00  0.00    +0.135 A 
ATOM      6  N   UNL     1      22.212  34.226  18.097  0.00  0.00    -0.281 N 
ATOM      7  C   UNL     1      22.499  34.251  16.711  0.00  0.00    +0.059 A 
ATOM      8  C   UNL     1      21.513  34.564  15.763  0.00  0.00    +0.028 A 
ATOM      9  C   UNL     1      21.879  34.680  14.409  0.00  0.00    +0.057 A 
ATOM     10  C   UNL     1      23.192  34.469  13.989  0.00  0.00    +0.121 A 
ATOM     11  C   UNL     1      24.160  34.136  14.929  0.00  0.00    +0.048 A 
ATOM     12  C   UNL     1      23.819  34.034  16.282  0.00  0.00    +0.030 A 
ATOM     13  C   UNL     1      20.064  34.774  16.091  0.00  0.00    +0.076 C 
ATOM     14  N   UNL     1      19.612  35.475  17.074  0.00  0.00    -0.271 NA
ATOM     15  C   UNL     1      23.705  32.316  18.928  0.00  0.00    +0.088 C 
ENDROOT
BRANCH  13  16
ATOM     16  C   UNL     1      19.040  34.133  15.203  0.00  0.00    +0.001 A 
ATOM     17  C   UNL     1      18.931  32.738  15.118  0.00  0.00    +0.011 A 
ATOM     18  C   UNL     1      17.964  32.164  14.286  0.00  0.00    +0.020 A 
ATOM     19  C   UNL     1      17.106  32.981  13.551  0.00  0.00    +0.041 A 
ATOM     20  C   UNL     1      17.198  34.369  13.646  0.00  0.00    +0.020 A 
ATOM     21  C   UNL     1      18.161  34.947  14.477  0.00  0.00    +0.011 A 
ATOM     22 CL   UNL     1      15.922  32.271  12.526  0.00  0.00    -0.084 Cl
ENDBRANCH  13  16
BRANCH  10  23
ATOM     23  O   UNL     1      23.394  34.619  12.646  0.00  0.00    -0.495 OA
ATOM     24  C   UNL     1      23.749  33.452  11.913  0.00  0.00    +0.277 C 
ENDBRANCH  10  23
BRANCH   1  25
ATOM     25  C   UNL     1      21.227  37.299  17.532  0.00  0.00    +0.130 C 
BRANCH  25  27
ATOM     26  N   UNL     1      23.375  38.111  18.500  0.00  0.00    -0.315 N 
ATOM     27  C   UNL     1      22.021  38.040  18.581  0.00  0.00    +0.215 C 
ATOM     28  O   UNL     1      21.448  38.585  19.528  0.00  0.00    -0.276 OA
ATOM     29  H   UNL     1      23.786  38.640  19.261  0.00  0.00    +0.149 HD
BRANCH  26  31
ATOM     30  C   UNL     1      25.366  36.743  18.117  0.00  0.00    +0.024 C 
ATOM     31  C   UNL     1      24.275  37.589  17.489  0.00  0.00    +0.101 C 
ENDBRANCH  26  31
ENDBRANCH  25  27
ENDBRANCH   1  25
TORSDOF 5
ENDMDL
