REMARK  Name = 
REMARK  1 active torsions:
REMARK  status: ('A' for Active; 'I' for Inactive)
REMARK    1  A    between atoms: C_1  and  N_2
REMARK                            x       y       z     vdW  Elec       q    Type
REMARK                         _______ _______ _______ _____ _____    ______ ____
ROOT
ATOM      1  C   UNL     1       1.020   0.038  -0.013  0.00  0.00    +0.152 C 
ATOM      2  N   UNL     1       0.648   0.632  -1.273  0.00  0.00    -0.315 N 
ATOM      3  C   UNL     1       0.119  -0.025  -2.360  0.00  0.00    +0.070 A 
ATOM      4  C   UNL     1      -0.063   0.979  -3.308  0.00  0.00    +0.100 A 
ATOM      5  C   UNL     1      -0.605   0.643  -4.574  0.00  0.00    +0.028 A 
ATOM      6  C   UNL     1      -0.949  -0.694  -4.858  0.00  0.00    +0.073 A 
ATOM      7  C   UNL     1      -0.746  -1.656  -3.877  0.00  0.00    +0.030 A 
ATOM      8  C   UNL     1      -0.212  -1.360  -2.613  0.00  0.00    +0.030 A 
ATOM      9  N   UNL     1      -1.465  -1.050  -6.049  0.00  0.00    -0.255 NA
ATOM     10  C   UNL     1      -1.647  -0.080  -6.977  0.00  0.00    +0.111 A 
ATOM     11  C   UNL     1      -1.337   1.255  -6.782  0.00  0.00    +0.020 A 
ATOM     12  C   UNL     1      -0.805   1.626  -5.556  0.00  0.00    +0.013 A 
ATOM     13  N   UNL     1       0.343   2.198  -2.811  0.00  0.00    -0.214 NA
ATOM     14  C   UNL     1       0.765   1.963  -1.595  0.00  0.00    +0.194 A 
ATOM     15  N   UNL     1       1.254   2.877  -0.751  0.00  0.00    -0.329 N 
ATOM     16  H   UNL     1       1.307   3.840  -1.066  0.00  0.00    +0.145 HD
ATOM     17  H   UNL     1       1.584   2.698   0.187  0.00  0.00    +0.145 HD
ENDROOT
TORSDOF 0
