REMARK  Name = =
REMARK  5 active torsions:
REMARK  status: ('A' for Active; 'I' for Inactive)
REMARK    1  A    between atoms: N_1  and  C_15
REMARK    2  A    between atoms: N_4  and  C_19
REMARK    3  A    between atoms: C_19  and  C_20
REMARK    4  A    between atoms: C_20  and  C_21
REMARK    5  A    between atoms: C_23  and  N_27
REMARK                            x       y       z     vdW  Elec       q    Type
REMARK                         _______ _______ _______ _____ _____    ______ ____
ROOT
ATOM      1  N   UNL     1      18.787  33.751  15.256  0.00  0.00    -0.319 N 
ATOM      2  C   UNL     1      17.628  32.856  15.130  0.00  0.00    +0.156 C 
ATOM      3  C   UNL     1      17.970  31.663  14.213  0.00  0.00    +0.150 C 
ATOM      4  N   UNL     1      18.538  32.127  12.865  0.00  0.00    +0.238 N 
ATOM      5  C   UNL     1      19.754  33.026  13.099  0.00  0.00    +0.150 C 
ATOM      6  C   UNL     1      19.422  34.220  14.016  0.00  0.00    +0.156 C 
ATOM      7  H   UNL     1      18.892  31.270  12.415  0.00  0.00    +0.203 HD
ENDROOT
BRANCH   1  15
ATOM      8  C   UNL     1      22.404  35.050  20.577  0.00  0.00    +0.065 C 
ATOM      9  C   UNL     1      21.453  34.919  19.425  0.00  0.00    +0.039 C 
ATOM     10  N   UNL     1      20.427  35.800  19.365  0.00  0.00    -0.252 NA
ATOM     11  C   UNL     1      19.553  35.715  18.348  0.00  0.00    +0.073 C 
ATOM     12  C   UNL     1      19.653  34.744  17.329  0.00  0.00    +0.021 C 
ATOM     13  C   UNL     1      20.731  33.844  17.423  0.00  0.00    +0.013 C 
ATOM     14  C   UNL     1      21.638  33.929  18.475  0.00  0.00    +0.024 C 
ATOM     15  C   UNL     1      18.693  34.711  16.277  0.00  0.00    +0.039 C 
ATOM     16  C   UNL     1      17.654  35.652  16.273  0.00  0.00    +0.024 C 
ATOM     17  C   UNL     1      17.562  36.607  17.280  0.00  0.00    +0.004 C 
ATOM     18  C   UNL     1      18.510  36.627  18.302  0.00  0.00    +0.028 C 
ENDBRANCH   1  15
BRANCH   4  19
ATOM     19  C   UNL     1      17.478  32.692  11.940  0.00  0.00    +0.136 C 
BRANCH  19  20
ATOM     20  C   UNL     1      18.044  33.122  10.577  0.00  0.00    +0.086 C 
BRANCH  20  21
ATOM     21  C   UNL     1      17.119  32.807   9.427  0.00  0.00    -0.041 C 
ATOM     22  C   UNL     1      17.208  31.575   8.752  0.00  0.00    +0.027 C 
ATOM     23  C   UNL     1      16.404  31.288   7.636  0.00  0.00    +0.038 C 
ATOM     24  C   UNL     1      15.505  32.272   7.211  0.00  0.00    +0.023 C 
ATOM     25  C   UNL     1      15.386  33.489   7.889  0.00  0.00    +0.002 C 
ATOM     26  C   UNL     1      16.182  33.753   8.997  0.00  0.00    +0.004 C 
BRANCH  23  27
ATOM     27  N   UNL     1      16.491  30.035   6.980  0.00  0.00    -0.254 N 
ATOM     28  C   UNL     1      15.465  29.014   7.054  0.00  0.00    +0.134 C 
ATOM     29  C   UNL     1      15.862  27.991   5.998  0.00  0.00    +0.125 C 
ATOM     30  N   UNL     1      17.214  28.334   5.683  0.00  0.00    -0.297 N 
ATOM     31  C   UNL     1      17.567  29.573   6.197  0.00  0.00    +0.307 C 
ATOM     32  O   UNL     1      18.648  30.092   5.980  0.00  0.00    -0.252 OA
ATOM     33  H   UNL     1      17.838  27.840   5.058  0.00  0.00    +0.150 HD
ENDBRANCH  23  27
ENDBRANCH  20  21
ENDBRANCH  19  20
ENDBRANCH   4  19
TORSDOF 5
