MODEL 1
REMARK minimizedAffinity -9.92172527
REMARK minimizedRMSD -1
REMARK  Name = 
REMARK  8 active torsions:
REMARK  status: ('A' for Active; 'I' for Inactive)
REMARK    1  A    between atoms: C_1  and  N_2
REMARK    2  A    between atoms: N_2  and  C_3
REMARK    3  A    between atoms: C_4  and  C_6
REMARK    4  A    between atoms: C_9  and  C_12
REMARK    5  A    between atoms: N_14  and  C_15
REMARK    6  A    between atoms: C_16  and  C_23
REMARK    7  A    between atoms: C_18  and  O_21
REMARK    8  A    between atoms: O_21  and  C_22
REMARK                            x       y       z     vdW  Elec       q    Type
REMARK                         _______ _______ _______ _____ _____    ______ ____
ROOT
ATOM      1  C   UNL     1      17.942  33.120  13.582  0.00  0.00    +0.046 A 
ATOM      2  C   UNL     1      17.055  33.171  12.492  0.00  0.00    +0.062 A 
ATOM      3  C   UNL     1      15.727  33.580  12.662  0.00  0.00    +0.060 A 
ATOM      4  C   UNL     1      15.277  34.004  13.911  0.00  0.00    +0.121 A 
ATOM      5  C   UNL     1      16.158  33.993  14.992  0.00  0.00    +0.047 A 
ATOM      6  C   UNL     1      17.480  33.551  14.829  0.00  0.00    +0.027 A 
ENDROOT
BRANCH   2   7
ATOM      7  C   UNL     1      17.448  32.665  11.162  0.00  0.00    +0.251 C 
ATOM      8  O   UNL     1      18.615  32.799  10.819  0.00  0.00    -0.270 OA
ATOM      9  N   UNL     1      16.414  32.122  10.444  0.00  0.00    -0.266 N 
ATOM     10  C   UNL     1      16.430  31.682   9.120  0.00  0.00    +0.125 A 
ATOM     11  N   UNL     1      15.229  31.231   8.699  0.00  0.00    -0.239 NA
ATOM     12  C   UNL     1      15.139  30.812   7.411  0.00  0.00    +0.132 A 
ATOM     13  C   UNL     1      16.197  30.828   6.518  0.00  0.00    +0.059 A 
ATOM     14  C   UNL     1      17.423  31.295   6.970  0.00  0.00    +0.025 A 
ATOM     15  C   UNL     1      17.544  31.732   8.291  0.00  0.00    +0.045 A 
ATOM     16 CL   UNL     1      16.003  30.291   4.902  0.00  0.00    -0.082 Cl
ATOM     17  H   UNL     1      15.511  31.982  10.881  0.00  0.00    +0.157 HD
ENDBRANCH   2   7
BRANCH   1  20
ATOM     18  C   UNL     1      20.457  33.365  13.570  0.00  0.00    +0.248 C 
ATOM     19  O   UNL     1      21.468  33.018  12.965  0.00  0.00    -0.270 OA
ATOM     20  N   UNL     1      19.273  32.690  13.397  0.00  0.00    -0.281 N 
ATOM     21  H   UNL     1      19.421  31.746  13.048  0.00  0.00    +0.155 HD
BRANCH  18  25
ATOM     22  C   UNL     1      20.522  36.313  16.687  0.00  0.00    +0.061 A 
ATOM     23  C   UNL     1      20.736  34.956  16.977  0.00  0.00    +0.016 A 
ATOM     24  C   UNL     1      20.762  34.011  15.947  0.00  0.00    +0.014 A 
ATOM     25  C   UNL     1      20.593  34.411  14.617  0.00  0.00    +0.037 A 
ATOM     26  C   UNL     1      20.392  35.765  14.321  0.00  0.00    +0.014 A 
ATOM     27  C   UNL     1      20.374  36.711  15.349  0.00  0.00    +0.016 A 
BRANCH  22  31
ATOM     28  C   UNL     1      19.111  38.649  19.366  0.00  0.00    +0.276 C 
ATOM     29  N   UNL     1      19.254  37.588  18.352  0.00  0.00    -0.229 N 
ATOM     30  C   UNL     1      18.017  36.839  18.011  0.00  0.00    +0.276 C 
ATOM     31  C   UNL     1      20.425  37.304  17.776  0.00  0.00    +0.270 C 
ATOM     32  N   UNL     1      21.557  37.893  18.116  0.00  0.00    -0.288 N 
ATOM     33  H   UNL     1      22.414  37.647  17.632  0.00  0.00    +0.301 HD
ATOM     34  H   UNL     1      21.619  38.577  18.853  0.00  0.00    +0.301 HD
ENDBRANCH  22  31
ENDBRANCH  18  25
ENDBRANCH   1  20
BRANCH   4  35
ATOM     35  O   UNL     1      13.969  34.394  13.943  0.00  0.00    -0.495 OA
ATOM     36  C   UNL     1      13.314  34.385  15.206  0.00  0.00    +0.277 C 
ENDBRANCH   4  35
TORSDOF 5
ENDMDL
MODEL 2
REMARK minimizedAffinity -9.77105045
REMARK minimizedRMSD -1
REMARK  Name = 
REMARK  8 active torsions:
REMARK  status: ('A' for Active; 'I' for Inactive)
REMARK    1  A    between atoms: C_1  and  N_2
REMARK    2  A    between atoms: N_2  and  C_3
REMARK    3  A    between atoms: C_4  and  C_6
REMARK    4  A    between atoms: C_9  and  C_12
REMARK    5  A    between atoms: N_14  and  C_15
REMARK    6  A    between atoms: C_16  and  C_23
REMARK    7  A    between atoms: C_18  and  O_21
REMARK    8  A    between atoms: O_21  and  C_22
REMARK                            x       y       z     vdW  Elec       q    Type
REMARK                         _______ _______ _______ _____ _____    ______ ____
ROOT
ATOM      1  C   UNL     1      18.393  32.786  13.323  0.00  0.00    +0.046 A 
ATOM      2  C   UNL     1      17.473  33.027  12.287  0.00  0.00    +0.062 A 
ATOM      3  C   UNL     1      16.226  33.604  12.551  0.00  0.00    +0.060 A 
ATOM      4  C   UNL     1      15.898  34.006  13.845  0.00  0.00    +0.121 A 
ATOM      5  C   UNL     1      16.817  33.805  14.874  0.00  0.00    +0.047 A 
ATOM      6  C   UNL     1      18.053  33.196  14.616  0.00  0.00    +0.027 A 
ENDROOT
BRANCH   2   7
ATOM      7  C   UNL     1      17.731  32.556  10.911  0.00  0.00    +0.251 C 
ATOM      8  O   UNL     1      18.859  32.695  10.459  0.00  0.00    -0.270 OA
ATOM      9  N   UNL     1      16.627  32.037  10.284  0.00  0.00    -0.266 N 
ATOM     10  C   UNL     1      16.510  31.635   8.954  0.00  0.00    +0.125 A 
ATOM     11  N   UNL     1      15.270  31.200   8.642  0.00  0.00    -0.239 NA
ATOM     12  C   UNL     1      15.051  30.817   7.358  0.00  0.00    +0.132 A 
ATOM     13  C   UNL     1      16.016  30.854   6.366  0.00  0.00    +0.059 A 
ATOM     14  C   UNL     1      17.283  31.304   6.706  0.00  0.00    +0.025 A 
ATOM     15  C   UNL     1      17.537  31.703   8.021  0.00  0.00    +0.045 A 
ATOM     16 CL   UNL     1      15.660  30.362   4.763  0.00  0.00    -0.082 Cl
ATOM     17  H   UNL     1      15.771  31.889  10.804  0.00  0.00    +0.157 HD
ENDBRANCH   2   7
BRANCH   1  20
ATOM     18  C   UNL     1      20.911  32.702  13.130  0.00  0.00    +0.248 C 
ATOM     19  O   UNL     1      21.823  32.233  12.453  0.00  0.00    -0.270 OA
ATOM     20  N   UNL     1      19.641  32.188  13.043  0.00  0.00    -0.281 N 
ATOM     21  H   UNL     1      19.640  31.236  12.685  0.00  0.00    +0.155 HD
BRANCH  18  25
ATOM     22  C   UNL     1      22.226  35.634  15.972  0.00  0.00    +0.061 A 
ATOM     23  C   UNL     1      21.805  36.016  14.690  0.00  0.00    +0.016 A 
ATOM     24  C   UNL     1      21.331  35.058  13.788  0.00  0.00    +0.014 A 
ATOM     25  C   UNL     1      21.257  33.712  14.163  0.00  0.00    +0.037 A 
ATOM     26  C   UNL     1      21.665  33.327  15.447  0.00  0.00    +0.014 A 
ATOM     27  C   UNL     1      22.131  34.286  16.350  0.00  0.00    +0.016 A 
BRANCH  22  31
ATOM     28  C   UNL     1      22.534  38.384  18.612  0.00  0.00    +0.276 C 
ATOM     29  N   UNL     1      22.012  37.309  17.749  0.00  0.00    -0.229 N 
ATOM     30  C   UNL     1      20.563  37.007  17.884  0.00  0.00    +0.276 C 
ATOM     31  C   UNL     1      22.792  36.632  16.902  0.00  0.00    +0.270 C 
ATOM     32  N   UNL     1      24.096  36.817  16.818  0.00  0.00    -0.288 N 
ATOM     33  H   UNL     1      24.635  36.285  16.143  0.00  0.00    +0.301 HD
ATOM     34  H   UNL     1      24.597  37.462  17.408  0.00  0.00    +0.301 HD
ENDBRANCH  22  31
ENDBRANCH  18  25
ENDBRANCH   1  20
BRANCH   4  35
ATOM     35  O   UNL     1      14.660  34.570  13.968  0.00  0.00    -0.495 OA
ATOM     36  C   UNL     1      14.156  34.759  15.286  0.00  0.00    +0.277 C 
ENDBRANCH   4  35
TORSDOF 5
ENDMDL
MODEL 3
REMARK minimizedAffinity -9.28935432
REMARK minimizedRMSD -1
REMARK  Name = 
REMARK  8 active torsions:
REMARK  status: ('A' for Active; 'I' for Inactive)
REMARK    1  A    between atoms: C_1  and  N_2
REMARK    2  A    between atoms: N_2  and  C_3
REMARK    3  A    between atoms: C_4  and  C_6
REMARK    4  A    between atoms: C_9  and  C_12
REMARK    5  A    between atoms: N_14  and  C_15
REMARK    6  A    between atoms: C_16  and  C_23
REMARK    7  A    between atoms: C_18  and  O_21
REMARK    8  A    between atoms: O_21  and  C_22
REMARK                            x       y       z     vdW  Elec       q    Type
REMARK                         _______ _______ _______ _____ _____    ______ ____
ROOT
ATOM      1  C   UNL     1      17.364  33.158  13.359  0.00  0.00    +0.046 A 
ATOM      2  C   UNL     1      16.357  33.851  12.664  0.00  0.00    +0.062 A 
ATOM      3  C   UNL     1      15.306  34.472  13.347  0.00  0.00    +0.060 A 
ATOM      4  C   UNL     1      15.274  34.466  14.741  0.00  0.00    +0.121 A 
ATOM      5  C   UNL     1      16.287  33.814  15.443  0.00  0.00    +0.047 A 
ATOM      6  C   UNL     1      17.323  33.161  14.757  0.00  0.00    +0.027 A 
ENDROOT
BRANCH   2   7
ATOM      7  C   UNL     1      16.295  33.829  11.188  0.00  0.00    +0.251 C 
ATOM      8  O   UNL     1      15.928  34.845  10.615  0.00  0.00    -0.270 OA
ATOM      9  N   UNL     1      16.634  32.622  10.634  0.00  0.00    -0.266 N 
ATOM     10  C   UNL     1      16.549  32.243   9.294  0.00  0.00    +0.125 A 
ATOM     11  N   UNL     1      16.931  30.965   9.083  0.00  0.00    -0.239 NA
ATOM     12  C   UNL     1      16.852  30.494   7.812  0.00  0.00    +0.132 A 
ATOM     13  C   UNL     1      16.402  31.244   6.738  0.00  0.00    +0.059 A 
ATOM     14  C   UNL     1      16.014  32.554   6.976  0.00  0.00    +0.025 A 
ATOM     15  C   UNL     1      16.087  33.065   8.275  0.00  0.00    +0.045 A 
ATOM     16 CL   UNL     1      16.320  30.576   5.162  0.00  0.00    -0.082 Cl
ATOM     17  H   UNL     1      17.015  31.885  11.215  0.00  0.00    +0.157 HD
ENDBRANCH   2   7
BRANCH   1  20
ATOM     18  C   UNL     1      19.755  32.793  12.626  0.00  0.00    +0.248 C 
ATOM     19  O   UNL     1      20.440  32.458  11.663  0.00  0.00    -0.270 OA
ATOM     20  N   UNL     1      18.409  32.522  12.654  0.00  0.00    -0.281 N 
ATOM     21  H   UNL     1      18.162  31.758  12.030  0.00  0.00    +0.155 HD
BRANCH  18  25
ATOM     22  C   UNL     1      21.468  34.299  16.260  0.00  0.00    +0.061 A 
ATOM     23  C   UNL     1      21.401  32.919  16.015  0.00  0.00    +0.016 A 
ATOM     24  C   UNL     1      20.887  32.441  14.806  0.00  0.00    +0.014 A 
ATOM     25  C   UNL     1      20.450  33.334  13.823  0.00  0.00    +0.037 A 
ATOM     26  C   UNL     1      20.525  34.714  14.057  0.00  0.00    +0.014 A 
ATOM     27  C   UNL     1      21.047  35.191  15.262  0.00  0.00    +0.016 A 
BRANCH  22  31
ATOM     28  C   UNL     1      21.533  35.668  19.831  0.00  0.00    +0.276 C 
ATOM     29  N   UNL     1      21.095  35.062  18.559  0.00  0.00    -0.229 N 
ATOM     30  C   UNL     1      19.650  34.736  18.453  0.00  0.00    +0.276 C 
ATOM     31  C   UNL     1      21.945  34.806  17.561  0.00  0.00    +0.270 C 
ATOM     32  N   UNL     1      23.247  35.005  17.654  0.00  0.00    -0.288 N 
ATOM     33  H   UNL     1      23.842  34.807  16.856  0.00  0.00    +0.301 HD
ATOM     34  H   UNL     1      23.692  35.337  18.495  0.00  0.00    +0.301 HD
ENDBRANCH  22  31
ENDBRANCH  18  25
ENDBRANCH   1  20
BRANCH   4  35
ATOM     35  O   UNL     1      14.208  35.121  15.288  0.00  0.00    -0.495 OA
ATOM     36  C   UNL     1      14.384  35.693  16.579  0.00  0.00    +0.277 C 
ENDBRANCH   4  35
TORSDOF 5
ENDMDL
MODEL 4
REMARK minimizedAffinity -9.09931087
REMARK minimizedRMSD -1
REMARK  Name = 
REMARK  8 active torsions:
REMARK  status: ('A' for Active; 'I' for Inactive)
REMARK    1  A    between atoms: C_1  and  N_2
REMARK    2  A    between atoms: N_2  and  C_3
REMARK    3  A    between atoms: C_4  and  C_6
REMARK    4  A    between atoms: C_9  and  C_12
REMARK    5  A    between atoms: N_14  and  C_15
REMARK    6  A    between atoms: C_16  and  C_23
REMARK    7  A    between atoms: C_18  and  O_21
REMARK    8  A    between atoms: O_21  and  C_22
REMARK                            x       y       z     vdW  Elec       q    Type
REMARK                         _______ _______ _______ _____ _____    ______ ____
ROOT
ATOM      1  C   UNL     1      18.065  33.761  13.066  0.00  0.00    +0.046 A 
ATOM      2  C   UNL     1      18.312  32.993  11.915  0.00  0.00    +0.062 A 
ATOM      3  C   UNL     1      19.601  32.540  11.613  0.00  0.00    +0.060 A 
ATOM      4  C   UNL     1      20.657  32.794  12.488  0.00  0.00    +0.121 A 
ATOM      5  C   UNL     1      20.417  33.523  13.652  0.00  0.00    +0.047 A 
ATOM      6  C   UNL     1      19.132  34.007  13.937  0.00  0.00    +0.027 A 
ENDROOT
BRANCH   2   7
ATOM      7  C   UNL     1      17.253  32.755  10.913  0.00  0.00    +0.251 C 
ATOM      8  O   UNL     1      16.140  33.211  11.136  0.00  0.00    -0.270 OA
ATOM      9  N   UNL     1      17.658  32.000   9.843  0.00  0.00    -0.266 N 
ATOM     10  C   UNL     1      16.872  31.495   8.807  0.00  0.00    +0.125 A 
ATOM     11  N   UNL     1      17.576  30.756   7.923  0.00  0.00    -0.239 NA
ATOM     12  C   UNL     1      16.889  30.195   6.895  0.00  0.00    +0.132 A 
ATOM     13  C   UNL     1      15.524  30.335   6.712  0.00  0.00    +0.059 A 
ATOM     14  C   UNL     1      14.819  31.097   7.631  0.00  0.00    +0.025 A 
ATOM     15  C   UNL     1      15.501  31.688   8.698  0.00  0.00    +0.045 A 
ATOM     16 CL   UNL     1      14.725  29.586   5.393  0.00  0.00    -0.082 Cl
ATOM     17  H   UNL     1      18.636  31.764   9.729  0.00  0.00    +0.157 HD
ENDBRANCH   2   7
BRANCH   1  20
ATOM     18  C   UNL     1      16.112  34.373  14.548  0.00  0.00    +0.248 C 
ATOM     19  O   UNL     1      14.885  34.359  14.601  0.00  0.00    -0.270 OA
ATOM     20  N   UNL     1      16.762  34.224  13.348  0.00  0.00    -0.281 N 
ATOM     21  H   UNL     1      16.165  34.465  12.560  0.00  0.00    +0.155 HD
BRANCH  18  25
ATOM     22  C   UNL     1      18.564  35.377  17.923  0.00  0.00    +0.061 A 
ATOM     23  C   UNL     1      18.231  36.345  16.964  0.00  0.00    +0.016 A 
ATOM     24  C   UNL     1      17.390  36.020  15.896  0.00  0.00    +0.014 A 
ATOM     25  C   UNL     1      16.860  34.730  15.782  0.00  0.00    +0.037 A 
ATOM     26  C   UNL     1      17.180  33.763  16.743  0.00  0.00    +0.014 A 
ATOM     27  C   UNL     1      18.013  34.090  17.816  0.00  0.00    +0.016 A 
BRANCH  22  31
ATOM     28  C   UNL     1      21.761  35.672  20.002  0.00  0.00    +0.276 C 
ATOM     29  N   UNL     1      20.815  35.461  18.891  0.00  0.00    -0.229 N 
ATOM     30  C   UNL     1      21.402  34.981  17.613  0.00  0.00    +0.276 C 
ATOM     31  C   UNL     1      19.506  35.697  19.014  0.00  0.00    +0.270 C 
ATOM     32  N   UNL     1      18.964  36.202  20.107  0.00  0.00    -0.288 N 
ATOM     33  H   UNL     1      17.960  36.345  20.148  0.00  0.00    +0.301 HD
ATOM     34  H   UNL     1      19.505  36.471  20.912  0.00  0.00    +0.301 HD
ENDBRANCH  22  31
ENDBRANCH  18  25
ENDBRANCH   1  20
BRANCH   4  35
ATOM     35  O   UNL     1      21.860  32.285  12.089  0.00  0.00    -0.495 OA
ATOM     36  C   UNL     1      22.875  32.157  13.078  0.00  0.00    +0.277 C 
ENDBRANCH   4  35
TORSDOF 5
ENDMDL
MODEL 5
REMARK minimizedAffinity -9.02982235
REMARK minimizedRMSD -1
REMARK  Name = 
REMARK  8 active torsions:
REMARK  status: ('A' for Active; 'I' for Inactive)
REMARK    1  A    between atoms: C_1  and  N_2
REMARK    2  A    between atoms: N_2  and  C_3
REMARK    3  A    between atoms: C_4  and  C_6
REMARK    4  A    between atoms: C_9  and  C_12
REMARK    5  A    between atoms: N_14  and  C_15
REMARK    6  A    between atoms: C_16  and  C_23
REMARK    7  A    between atoms: C_18  and  O_21
REMARK    8  A    between atoms: O_21  and  C_22
REMARK                            x       y       z     vdW  Elec       q    Type
REMARK                         _______ _______ _______ _____ _____    ______ ____
ROOT
ATOM      1  C   UNL     1      19.128  33.964  13.742  0.00  0.00    +0.046 A 
ATOM      2  C   UNL     1      19.877  34.878  14.504  0.00  0.00    +0.062 A 
ATOM      3  C   UNL     1      21.273  34.913  14.420  0.00  0.00    +0.060 A 
ATOM      4  C   UNL     1      21.945  34.079  13.528  0.00  0.00    +0.121 A 
ATOM      5  C   UNL     1      21.210  33.193  12.739  0.00  0.00    +0.047 A 
ATOM      6  C   UNL     1      19.813  33.133  12.849  0.00  0.00    +0.027 A 
ENDROOT
BRANCH   2   7
ATOM      7  C   UNL     1      19.231  35.734  15.519  0.00  0.00    +0.251 C 
ATOM      8  O   UNL     1      18.222  36.345  15.197  0.00  0.00    -0.270 OA
ATOM      9  N   UNL     1      19.888  35.762  16.723  0.00  0.00    -0.266 N 
ATOM     10  C   UNL     1      19.612  36.567  17.829  0.00  0.00    +0.125 A 
ATOM     11  N   UNL     1      20.474  36.373  18.850  0.00  0.00    -0.239 NA
ATOM     12  C   UNL     1      20.304  37.137  19.960  0.00  0.00    +0.132 A 
ATOM     13  C   UNL     1      19.311  38.092  20.095  0.00  0.00    +0.059 A 
ATOM     14  C   UNL     1      18.436  38.276  19.035  0.00  0.00    +0.025 A 
ATOM     15  C   UNL     1      18.587  37.503  17.881  0.00  0.00    +0.045 A 
ATOM     16 CL   UNL     1      19.167  39.025  21.525  0.00  0.00    -0.082 Cl
ATOM     17  H   UNL     1      20.663  35.133  16.893  0.00  0.00    +0.157 HD
ENDBRANCH   2   7
BRANCH   1  20
ATOM     18  C   UNL     1      16.754  33.977  12.876  0.00  0.00    +0.248 C 
ATOM     19  O   UNL     1      15.622  34.374  13.139  0.00  0.00    -0.270 OA
ATOM     20  N   UNL     1      17.722  33.929  13.850  0.00  0.00    -0.281 N 
ATOM     21  H   UNL     1      17.320  33.897  14.784  0.00  0.00    +0.155 HD
BRANCH  18  25
ATOM     22  C   UNL     1      17.106  32.200   8.987  0.00  0.00    +0.061 A 
ATOM     23  C   UNL     1      16.642  33.516   9.136  0.00  0.00    +0.016 A 
ATOM     24  C   UNL     1      16.579  34.102  10.403  0.00  0.00    +0.014 A 
ATOM     25  C   UNL     1      16.994  33.388  11.533  0.00  0.00    +0.037 A 
ATOM     26  C   UNL     1      17.469  32.079  11.388  0.00  0.00    +0.014 A 
ATOM     27  C   UNL     1      17.541  31.496  10.121  0.00  0.00    +0.016 A 
BRANCH  22  31
ATOM     28  C   UNL     1      15.997  30.277   5.873  0.00  0.00    +0.276 C 
ATOM     29  N   UNL     1      15.998  31.020   7.146  0.00  0.00    -0.229 N 
ATOM     30  C   UNL     1      14.684  31.156   7.826  0.00  0.00    +0.276 C 
ATOM     31  C   UNL     1      17.110  31.554   7.660  0.00  0.00    +0.270 C 
ATOM     32  N   UNL     1      18.276  31.524   7.042  0.00  0.00    -0.288 N 
ATOM     33  H   UNL     1      19.090  31.933   7.488  0.00  0.00    +0.301 HD
ATOM     34  H   UNL     1      18.401  31.122   6.127  0.00  0.00    +0.301 HD
ENDBRANCH  22  31
ENDBRANCH  18  25
ENDBRANCH   1  20
BRANCH   4  35
ATOM     35  O   UNL     1      23.303  34.221  13.528  0.00  0.00    -0.495 OA
ATOM     36  C   UNL     1      24.084  33.041  13.373  0.00  0.00    +0.277 C 
ENDBRANCH   4  35
TORSDOF 5
ENDMDL
