REMARK  Name = =
REMARK  2 active torsions:
REMARK  status: ('A' for Active; 'I' for Inactive)
REMARK    1  A    between atoms: C_1  and  N_17
REMARK    2  A    between atoms: C_15  and  N_17
REMARK                            x       y       z     vdW  Elec       q    Type
REMARK                         _______ _______ _______ _____ _____    ______ ____
ROOT
ATOM      1  C   UNL     1      17.911  32.101  11.298  0.00  0.00    +0.108 C 
ATOM      2  C   UNL     1      16.957  32.805  12.058  0.00  0.00    +0.082 C 
ATOM      3  C   UNL     1      17.321  33.666  13.103  0.00  0.00    +0.106 C 
ATOM      4  N   UNL     1      16.403  34.326  13.851  0.00  0.00    -0.251 NA
ATOM      5  C   UNL     1      16.862  35.132  14.834  0.00  0.00    +0.131 C 
ATOM      6  C   UNL     1      18.207  35.284  15.079  0.00  0.00    +0.131 C 
ATOM      7  N   UNL     1      19.143  34.639  14.351  0.00  0.00    -0.252 NA
ATOM      8  C   UNL     1      18.700  33.836  13.370  0.00  0.00    +0.090 C 
ATOM      9  C   UNL     1      19.637  33.169  12.594  0.00  0.00    +0.033 C 
ATOM     10  C   UNL     1      19.260  32.312  11.558  0.00  0.00    +0.043 C 
ATOM     11 BR   UNL     1      15.102  32.548  11.652  0.00  0.00    -0.045 Br
ENDROOT
BRANCH   1  12
ATOM     12  N   UNL     1      17.463  31.257  10.235  0.00  0.00    -0.208 N 
ATOM     13  H   UNL     1      17.621  30.260  10.360  0.00  0.00    +0.251 HD
BRANCH  12  17
ATOM     14  C   UNL     1      15.915  31.451   7.007  0.00  0.00    +0.221 C 
ATOM     15  C   UNL     1      16.406  32.893   7.197  0.00  0.00    +0.230 C 
ATOM     16  N   UNL     1      17.052  32.891   8.512  0.00  0.00    -0.279 N 
ATOM     17  C   UNL     1      16.959  31.643   9.056  0.00  0.00    +0.334 C 
ATOM     18  N   UNL     1      16.323  30.759   8.230  0.00  0.00    -0.238 N 
ATOM     19  H   UNL     1      17.649  33.617   8.886  0.00  0.00    +0.258 HD
ATOM     20  H   UNL     1      16.138  29.794   8.473  0.00  0.00    +0.244 HD
ENDBRANCH  12  17
ENDBRANCH   1  12
TORSDOF 2
