REMARK  Name = =
REMARK  2 active torsions:
REMARK  status: ('A' for Active; 'I' for Inactive)
REMARK    1  A    between atoms: C_1  and  N_17
REMARK    2  A    between atoms: C_15  and  N_17
REMARK                            x       y       z     vdW  Elec       q    Type
REMARK                         _______ _______ _______ _____ _____    ______ ____
ROOT
ATOM      1  C   UNL     1      18.530  32.643  14.504  0.00  0.00    +0.108 C 
ATOM      2  C   UNL     1      17.925  33.349  15.562  0.00  0.00    +0.082 C 
ATOM      3  C   UNL     1      16.645  33.910  15.451  0.00  0.00    +0.106 C 
ATOM      4  N   UNL     1      16.072  34.611  16.460  0.00  0.00    -0.251 NA
ATOM      5  C   UNL     1      14.833  35.110  16.247  0.00  0.00    +0.131 C 
ATOM      6  C   UNL     1      14.170  34.924  15.057  0.00  0.00    +0.131 C 
ATOM      7  N   UNL     1      14.717  34.232  14.035  0.00  0.00    -0.252 NA
ATOM      8  C   UNL     1      15.947  33.729  14.233  0.00  0.00    +0.090 C 
ATOM      9  C   UNL     1      16.533  33.001  13.207  0.00  0.00    +0.033 C 
ATOM     10  C   UNL     1      17.809  32.450  13.332  0.00  0.00    +0.043 C 
ATOM     11 BR   UNL     1      18.908  33.560  17.193  0.00  0.00    -0.045 Br
ENDROOT
BRANCH   1  12
ATOM     12  N   UNL     1      19.830  32.082  14.701  0.00  0.00    -0.208 N 
ATOM     13  H   UNL     1      19.880  31.280  15.324  0.00  0.00    +0.251 HD
BRANCH  12  17
ATOM     14  C   UNL     1      23.245  32.597  13.737  0.00  0.00    +0.221 C 
ATOM     15  C   UNL     1      22.622  33.958  13.396  0.00  0.00    +0.230 C 
ATOM     16  N   UNL     1      21.210  33.820  13.762  0.00  0.00    -0.279 N 
ATOM     17  C   UNL     1      20.993  32.561  14.241  0.00  0.00    +0.334 C 
ATOM     18  N   UNL     1      22.132  31.806  14.265  0.00  0.00    -0.238 N 
ATOM     19  H   UNL     1      20.538  34.571  13.849  0.00  0.00    +0.258 HD
ATOM     20  H   UNL     1      22.162  30.839  14.563  0.00  0.00    +0.244 HD
ENDBRANCH  12  17
ENDBRANCH   1  12
TORSDOF 2
