REMARK  Name = 
REMARK  5 active torsions:
REMARK  status: ('A' for Active; 'I' for Inactive)
REMARK    1  A    between atoms: C_4  and  C_8
REMARK    2  A    between atoms: N_13  and  C_14
REMARK    3  A    between atoms: C_16  and  O_21
REMARK    4  A    between atoms: O_21  and  C_22
REMARK    5  A    between atoms: C_25  and  C_28
REMARK                            x       y       z     vdW  Elec       q    Type
REMARK                         _______ _______ _______ _____ _____    ______ ____
ROOT
ATOM      1  C   UNL     1       1.160   0.576  -1.116  0.00  0.00    +0.038 A 
ATOM      2  C   UNL     1      -0.588   0.428  -1.021  0.00  0.00    +0.071 A 
ATOM      3  C   UNL     1      -1.298  -0.488   0.359  0.00  0.00    +0.150 A 
ATOM      4  C   UNL     1      -0.016  -1.267   1.730  0.00  0.00    +0.083 A 
ATOM      5  C   UNL     1       1.753  -1.024   1.465  0.00  0.00    +0.025 A 
ATOM      6  C   UNL     1       2.284  -0.115   0.070  0.00  0.00    +0.025 A 
ATOM      7 CL   UNL     1      -0.009  -2.209   3.331  0.00  0.00    -0.080 Cl
ENDROOT
BRANCH   1  13
ATOM      8  C   UNL     1       0.974   1.827   1.145  0.00  0.00    +0.257 C 
ATOM      9  O   UNL     1       1.545   2.046   2.214  0.00  0.00    -0.270 OA
ATOM     10  N   UNL     1       0.837   2.853   0.213  0.00  0.00    -0.236 N 
ATOM     11  C   UNL     1       1.397   2.923  -1.046  0.00  0.00    +0.310 C 
ATOM     12  O   UNL     1       1.805   3.989  -1.498  0.00  0.00    -0.252 OA
ATOM     13  N   UNL     1       1.603   1.748  -1.708  0.00  0.00    -0.269 N 
ATOM     14  H   UNL     1       0.899   3.765   0.648  0.00  0.00    +0.159 HD
ATOM     15  H   UNL     1       2.334   1.750  -2.407  0.00  0.00    +0.156 HD
BRANCH   8  19
ATOM     16  C   UNL     1      -2.018  -2.310   1.492  0.00  0.00    +0.006 A 
ATOM     17  C   UNL     1      -2.120  -0.809   2.454  0.00  0.00    +0.039 A 
ATOM     18  C   UNL     1      -1.033   0.551   2.216  0.00  0.00    +0.138 A 
ATOM     19  C   UNL     1       0.253   0.457   0.954  0.00  0.00    +0.107 A 
ATOM     20  C   UNL     1       0.355  -1.260  -0.123  0.00  0.00    +0.138 A 
ATOM     21  C   UNL     1      -0.820  -2.575   0.233  0.00  0.00    +0.039 A 
ATOM     22  F   UNL     1       1.187  -1.659  -1.129  0.00  0.00    -0.205 F 
ATOM     23  F   UNL     1      -1.202   1.661   2.946  0.00  0.00    -0.205 F 
ENDBRANCH   8  19
ENDBRANCH   1  13
BRANCH   3  24
ATOM     24  O   UNL     1      -2.706  -0.319   0.292  0.00  0.00    -0.435 OA
BRANCH  24  25
ATOM     25  C   UNL     1      -3.385  -0.631  -0.884  0.00  0.00    +0.239 A 
ATOM     26  C   UNL     1      -4.718  -0.236  -0.971  0.00  0.00    +0.103 A 
ATOM     27  C   UNL     1      -5.443  -0.599  -2.105  0.00  0.00    +0.039 A 
ATOM     28  C   UNL     1      -4.828  -1.351  -3.114  0.00  0.00    +0.074 A 
ATOM     29  C   UNL     1      -3.496  -1.696  -2.936  0.00  0.00    +0.127 A 
ATOM     30  N   UNL     1      -2.767  -1.359  -1.847  0.00  0.00    -0.219 NA
ATOM     31 CL   UNL     1      -5.498   0.670   0.268  0.00  0.00    -0.078 Cl
BRANCH  28  32
ATOM     32  C   UNL     1      -5.574  -1.768  -4.345  0.00  0.00    +0.419 C 
ATOM     33  F   UNL     1      -5.917  -0.707  -5.123  0.00  0.00    -0.166 F 
ATOM     34  F   UNL     1      -4.869  -2.612  -5.146  0.00  0.00    -0.166 F 
ATOM     35  F   UNL     1      -6.736  -2.413  -4.053  0.00  0.00    -0.166 F 
ENDBRANCH  28  32
ENDBRANCH  24  25
ENDBRANCH   3  24
TORSDOF 5
