REMARK  Name = =
REMARK  3 active torsions:
REMARK  status: ('A' for Active; 'I' for Inactive)
REMARK    1  A    between atoms: C_1  and  O_21
REMARK    2  A    between atoms: C_2  and  O_22
REMARK    3  A    between atoms: N_11  and  C_13
REMARK                            x       y       z     vdW  Elec       q    Type
REMARK                         _______ _______ _______ _____ _____    ______ ____
ROOT
ATOM      1  C   UNL     1      19.296  32.905  14.880  0.00  0.00    +0.162 C 
ATOM      2  C   UNL     1      18.722  33.283  16.092  0.00  0.00    +0.164 C 
ATOM      3  C   UNL     1      17.374  33.644  16.125  0.00  0.00    +0.078 C 
ATOM      4  C   UNL     1      16.595  33.690  14.976  0.00  0.00    +0.080 C 
ATOM      5  C   UNL     1      17.174  33.340  13.747  0.00  0.00    +0.044 C 
ATOM      6  C   UNL     1      18.540  32.964  13.710  0.00  0.00    +0.062 C 
ATOM      7  C   UNL     1      16.312  33.397  12.631  0.00  0.00    +0.134 C 
ATOM      8  N   UNL     1      15.035  33.805  12.743  0.00  0.00    -0.220 NA
ATOM      9  C   UNL     1      14.603  34.120  13.966  0.00  0.00    +0.223 C 
ATOM     10  N   UNL     1      15.320  34.072  15.092  0.00  0.00    -0.235 NA
ATOM     11  N   UNL     1      16.792  33.011  11.358  0.00  0.00    -0.299 N 
ATOM     12  H   UNL     1      17.370  32.183  11.400  0.00  0.00    +0.154 HD
ENDROOT
BRANCH  11  13
ATOM     13  C   UNL     1      16.294  33.303  10.075  0.00  0.00    +0.034 C 
ATOM     14  C   UNL     1      16.211  32.347   9.055  0.00  0.00    +0.043 C 
ATOM     15  C   UNL     1      15.699  32.687   7.802  0.00  0.00    +0.043 C 
ATOM     16  C   UNL     1      15.251  33.979   7.543  0.00  0.00    +0.020 C 
ATOM     17  C   UNL     1      15.311  34.938   8.550  0.00  0.00    +0.003 C 
ATOM     18  C   UNL     1      15.822  34.600   9.806  0.00  0.00    +0.023 C 
ATOM     19 CL   UNL     1      15.609  31.493   6.563  0.00  0.00    -0.083 Cl
ENDBRANCH  11  13
BRANCH   1  21
ATOM     20  C   UNL     1      21.184  33.060  13.589  0.00  0.00    +0.277 C 
ATOM     21  O   UNL     1      20.599  32.505  14.769  0.00  0.00    -0.491 OA
ENDBRANCH   1  21
BRANCH   2  22
ATOM     22  O   UNL     1      19.367  33.280  17.299  0.00  0.00    -0.491 OA
ATOM     23  C   UNL     1      19.909  34.550  17.657  0.00  0.00    +0.277 C 
ENDBRANCH   2  22
TORSDOF 3
