REMARK  Name = 
REMARK  2 active torsions:
REMARK  status: ('A' for Active; 'I' for Inactive)
REMARK    1  A    between atoms: C_3  and  N_16
REMARK    2  A    between atoms: C_11  and  N_13
REMARK                            x       y       z     vdW  Elec       q    Type
REMARK                         _______ _______ _______ _____ _____    ______ ____
ROOT
ATOM      1  C   UNL     1      -2.437  -1.403   0.002  0.00  0.00    +0.012 A 
ATOM      2  C   UNL     1      -3.631  -0.683   0.000  0.00  0.00    +0.023 A 
ATOM      3  C   UNL     1      -3.613   0.709   0.013  0.00  0.00    +0.027 A 
ATOM      4  C   UNL     1      -2.376   1.365   0.000  0.00  0.00    +0.051 A 
ATOM      5  C   UNL     1      -1.166   0.677   0.002  0.00  0.00    +0.073 A 
ATOM      6  N   UNL     1      -0.005   1.361   0.000  0.00  0.00    -0.247 NA
ATOM      7  C   UNL     1       1.161   0.686  -0.000  0.00  0.00    +0.073 A 
ATOM      8  C   UNL     1       1.215  -0.719   0.001  0.00  0.00    +0.001 A 
ATOM      9  C   UNL     1       2.451  -1.382   0.000  0.00  0.00    +0.012 A 
ATOM     10  C   UNL     1       3.638  -0.652   0.000  0.00  0.00    +0.023 A 
ATOM     11  C   UNL     1       3.607   0.740  -0.001  0.00  0.00    +0.027 A 
ATOM     12  C   UNL     1       2.365   1.385  -0.001  0.00  0.00    +0.051 A 
ATOM     13  C   UNL     1       0.007  -1.422   0.002  0.00  0.00    +0.020 A 
ATOM     14  C   UNL     1      -1.207  -0.729   0.004  0.00  0.00    +0.001 A 
ENDROOT
BRANCH  11  15
ATOM     15  N   UNL     1       4.783   1.466   0.001  0.00  0.00    -0.358 N 
ATOM     16  H   UNL     1       5.680   1.001  -0.001  0.00  0.00    +0.142 HD
ATOM     17  H   UNL     1       4.764   2.477  -0.001  0.00  0.00    +0.142 HD
ENDBRANCH  11  15
BRANCH   3  18
ATOM     18  N   UNL     1      -4.795   1.425  -0.045  0.00  0.00    -0.358 N 
ATOM     19  H   UNL     1      -4.783   2.432   0.044  0.00  0.00    +0.142 HD
ATOM     20  H   UNL     1      -5.684   0.952   0.047  0.00  0.00    +0.142 HD
ENDBRANCH   3  18
TORSDOF 2
