REMARK  Name = =
REMARK  6 active torsions:
REMARK  status: ('A' for Active; 'I' for Inactive)
REMARK    1  A    between atoms: C_1  and  O_36
REMARK    2  A    between atoms: C_2  and  N_21
REMARK    3  A    between atoms: N_11  and  C_13
REMARK    4  A    between atoms: C_22  and  C_25
REMARK    5  A    between atoms: C_26  and  C_27
REMARK    6  A    between atoms: C_27  and  N_28
REMARK                            x       y       z     vdW  Elec       q    Type
REMARK                         _______ _______ _______ _____ _____    ______ ____
ROOT
ATOM      1  C   UNL     1      19.733  32.830  15.358  0.00  0.00    +0.143 C 
ATOM      2  C   UNL     1      20.165  32.831  14.022  0.00  0.00    +0.077 C 
ATOM      3  C   UNL     1      19.275  33.222  13.024  0.00  0.00    +0.040 C 
ATOM      4  C   UNL     1      17.924  33.519  13.325  0.00  0.00    +0.042 C 
ATOM      5  C   UNL     1      17.478  33.434  14.649  0.00  0.00    +0.080 C 
ATOM      6  C   UNL     1      18.394  33.115  15.646  0.00  0.00    +0.076 C 
ATOM      7  N   UNL     1      16.207  33.651  14.988  0.00  0.00    -0.235 NA
ATOM      8  C   UNL     1      15.356  33.951  14.000  0.00  0.00    +0.223 C 
ATOM      9  N   UNL     1      15.665  34.062  12.704  0.00  0.00    -0.220 NA
ATOM     10  C   UNL     1      16.952  33.880  12.372  0.00  0.00    +0.134 C 
ATOM     11  N   UNL     1      17.351  34.056  11.023  0.00  0.00    -0.299 N 
ATOM     12  H   UNL     1      18.121  34.716  10.971  0.00  0.00    +0.154 HD
ENDROOT
BRANCH  11  13
ATOM     13  C   UNL     1      16.611  33.950   9.831  0.00  0.00    +0.034 C 
ATOM     14  C   UNL     1      16.586  32.716   9.162  0.00  0.00    +0.046 C 
ATOM     15  C   UNL     1      15.787  32.528   8.031  0.00  0.00    +0.078 C 
ATOM     16  C   UNL     1      14.998  33.570   7.557  0.00  0.00    +0.142 C 
ATOM     17  C   UNL     1      14.996  34.796   8.210  0.00  0.00    +0.041 C 
ATOM     18  C   UNL     1      15.788  34.978   9.348  0.00  0.00    +0.026 C 
ATOM     19  F   UNL     1      14.206  33.403   6.490  0.00  0.00    -0.204 F 
ATOM     20 CL   UNL     1      15.756  30.984   7.271  0.00  0.00    -0.081 Cl
ENDBRANCH  11  13
BRANCH   2  21
ATOM     21  N   UNL     1      21.506  32.487  13.759  0.00  0.00    -0.279 N 
ATOM     22  C   UNL     1      22.681  33.122  14.032  0.00  0.00    +0.241 C 
ATOM     23  O   UNL     1      23.758  32.536  13.969  0.00  0.00    -0.271 OA
ATOM     24  H   UNL     1      21.627  31.603  13.266  0.00  0.00    +0.155 HD
BRANCH  22  25
ATOM     25  C   UNL     1      22.649  34.591  14.279  0.00  0.00    +0.068 C 
ATOM     26  C   UNL     1      22.816  35.063  15.525  0.00  0.00    +0.028 C 
BRANCH  26  27
ATOM     27  C   UNL     1      22.903  36.460  16.042  0.00  0.00    +0.160 C 
BRANCH  27  28
ATOM     28  N   UNL     1      21.954  36.939  17.113  0.00  0.00    +0.238 N 
ATOM     29  C   UNL     1      20.500  36.649  16.830  0.00  0.00    +0.131 C 
ATOM     30  C   UNL     1      19.635  37.428  17.813  0.00  0.00    +0.051 C 
ATOM     31  C   UNL     1      20.020  37.134  19.260  0.00  0.00    +0.010 C 
ATOM     32  C   UNL     1      21.504  37.392  19.501  0.00  0.00    +0.051 C 
ATOM     33  C   UNL     1      22.379  36.617  18.524  0.00  0.00    +0.131 C 
ATOM     34  H   UNL     1      22.033  37.963  17.046  0.00  0.00    +0.204 HD
ENDBRANCH  27  28
ENDBRANCH  26  27
ENDBRANCH  22  25
ENDBRANCH   2  21
BRANCH   1  36
ATOM     35  C   UNL     1      20.546  33.050  17.592  0.00  0.00    +0.277 C 
ATOM     36  O   UNL     1      20.688  32.499  16.286  0.00  0.00    -0.493 OA
ENDBRANCH   1  36
TORSDOF 6
