REMARK  Name = =
REMARK  1 active torsions:
REMARK  status: ('A' for Active; 'I' for Inactive)
REMARK    1  A    between atoms: C_12  and  N_15
REMARK                            x       y       z     vdW  Elec       q    Type
REMARK                         _______ _______ _______ _____ _____    ______ ____
ROOT
ATOM      1  C   UNL     1      15.652  28.014   5.612  0.00  0.00    +0.005 C 
ATOM      2  C   UNL     1      14.216  28.509   5.665  0.00  0.00    +0.006 C 
ATOM      3  C   UNL     1      13.927  29.094   7.041  0.00  0.00    +0.056 C 
ATOM      4  C   UNL     1      14.972  30.079   7.501  0.00  0.00    +0.047 A 
ATOM      5  N   UNL     1      14.583  30.889   8.512  0.00  0.00    -0.251 NA
ATOM      6  C   UNL     1      15.462  31.762   9.018  0.00  0.00    +0.073 A 
ATOM      7  C   UNL     1      15.039  32.561  10.073  0.00  0.00    +0.028 C 
ATOM      8  C   UNL     1      15.879  33.499  10.674  0.00  0.00    +0.002 C 
ATOM      9  C   UNL     1      17.178  33.643  10.215  0.00  0.00    +0.001 C 
ATOM     10  C   UNL     1      17.624  32.851   9.156  0.00  0.00    +0.012 C 
ATOM     11  C   UNL     1      16.778  31.899   8.531  0.00  0.00    +0.021 A 
ATOM     12  C   UNL     1      17.162  31.070   7.438  0.00  0.00    +0.039 A 
ATOM     13  C   UNL     1      16.257  30.104   6.954  0.00  0.00    -0.005 A 
ATOM     14  C   UNL     1      16.627  29.171   5.824  0.00  0.00    +0.039 C 
ENDROOT
BRANCH  12  15
ATOM     15  N   UNL     1      18.465  31.120   6.923  0.00  0.00    -0.357 N 
ATOM     16  H   UNL     1      18.670  30.647   6.053  0.00  0.00    +0.142 HD
ATOM     17  H   UNL     1      19.050  31.915   7.134  0.00  0.00    +0.142 HD
ENDBRANCH  12  15
TORSDOF 1
