REMARK  Name = =
REMARK  2 active torsions:
REMARK  status: ('A' for Active; 'I' for Inactive)
REMARK    1  A    between atoms: N_15  and  C_18
REMARK    2  A    between atoms: C_18  and  C_19
REMARK                            x       y       z     vdW  Elec       q    Type
REMARK                         _______ _______ _______ _____ _____    ______ ____
ROOT
ATOM      1  C   UNL     1      17.419  36.250  16.787  0.00  0.00    +0.148 C 
ATOM      2  C   UNL     1      17.239  35.887  15.305  0.00  0.00    +0.159 C 
ATOM      3  N   UNL     1      16.845  34.467  15.158  0.00  0.00    -0.291 N 
ATOM      4  C   UNL     1      15.636  34.088  15.919  0.00  0.00    +0.159 C 
ATOM      5  C   UNL     1      15.793  34.447  17.407  0.00  0.00    +0.148 C 
ATOM      6  N   UNL     1      16.168  35.901  17.560  0.00  0.00    +0.229 N 
ATOM      7  C   UNL     1      16.849  34.028  13.870  0.00  0.00    +0.200 A 
ATOM      8  N   UNL     1      15.865  34.161  13.017  0.00  0.00    -0.214 NA
ATOM      9  C   UNL     1      16.323  33.622  11.840  0.00  0.00    +0.091 A 
ATOM     10  C   UNL     1      15.678  33.522  10.599  0.00  0.00    +0.030 C 
ATOM     11  C   UNL     1      16.359  32.922   9.532  0.00  0.00    +0.002 C 
ATOM     12  C   UNL     1      17.654  32.432   9.700  0.00  0.00    +0.002 C 
ATOM     13  C   UNL     1      18.312  32.521  10.932  0.00  0.00    +0.028 C 
ATOM     14  C   UNL     1      17.616  33.127  11.985  0.00  0.00    +0.070 A 
ATOM     15  N   UNL     1      17.927  33.384  13.304  0.00  0.00    -0.307 N 
ATOM     16  H   UNL     1      16.300  36.125  18.554  0.00  0.00    +0.201 HD
ATOM     17  H   UNL     1      15.392  36.485  17.221  0.00  0.00    +0.201 HD
ENDROOT
BRANCH  15  18
ATOM     18  C   UNL     1      19.126  32.933  13.997  0.00  0.00    +0.160 C 
BRANCH  18  19
ATOM     19  C   UNL     1      20.322  33.824  13.762  0.00  0.00    -0.028 C 
ATOM     20  C   UNL     1      21.259  33.489  12.771  0.00  0.00    +0.005 C 
ATOM     21  C   UNL     1      22.360  34.311  12.524  0.00  0.00    +0.000 C 
ATOM     22  C   UNL     1      22.533  35.482  13.257  0.00  0.00    +0.000 C 
ATOM     23  C   UNL     1      21.601  35.839  14.229  0.00  0.00    +0.000 C 
ATOM     24  C   UNL     1      20.496  35.021  14.475  0.00  0.00    +0.005 C 
ENDBRANCH  18  19
ENDBRANCH  15  18
TORSDOF 2
