MODEL 1
REMARK minimizedAffinity -7.90464926
REMARK minimizedRMSD -1
REMARK  Name = 
REMARK  7 active torsions:
REMARK  status: ('A' for Active; 'I' for Inactive)
REMARK    1  A    between atoms: C_1  and  C_2
REMARK    2  A    between atoms: C_4  and  C_25
REMARK    3  A    between atoms: C_6  and  C_24
REMARK    4  A    between atoms: C_7  and  N_8
REMARK    5  A    between atoms: N_15  and  C_16
REMARK    6  A    between atoms: C_19  and  C_22
REMARK    7  A    between atoms: C_26  and  C_27
REMARK                            x       y       z     vdW  Elec       q    Type
REMARK                         _______ _______ _______ _____ _____    ______ ____
ROOT
ATOM      1  N   UNL     1      19.178  33.459  14.883  0.00  0.00    -0.299 N 
ATOM      2  C   UNL     1      19.714  34.661  15.343  0.00  0.00    +0.128 A 
ATOM      3  N   UNL     1      20.739  34.549  16.203  0.00  0.00    -0.199 NA
ATOM      4  C   UNL     1      21.306  35.670  16.668  0.00  0.00    +0.221 A 
ATOM      5  N   UNL     1      20.874  36.899  16.351  0.00  0.00    -0.223 NA
ATOM      6  C   UNL     1      19.837  36.979  15.498  0.00  0.00    +0.118 A 
ATOM      7  C   UNL     1      19.219  35.884  14.953  0.00  0.00    +0.063 A 
ATOM      8  N   UNL     1      22.399  35.628  17.531  0.00  0.00    -0.284 N 
ATOM      9  H   UNL     1      19.645  32.673  15.322  0.00  0.00    +0.154 HD
ATOM     10  H   UNL     1      22.625  36.569  17.819  0.00  0.00    +0.155 HD
ENDROOT
BRANCH   1  17
ATOM     11  C   UNL     1      20.845  32.774  12.663  0.00  0.00    +0.046 C 
ATOM     12  C   UNL     1      19.347  32.872  12.537  0.00  0.00    -0.028 A 
ATOM     13  C   UNL     1      18.755  32.705  11.274  0.00  0.00    +0.013 A 
ATOM     14  C   UNL     1      17.374  32.823  11.110  0.00  0.00    -0.024 A 
ATOM     15  C   UNL     1      16.580  33.072  12.233  0.00  0.00    +0.013 A 
ATOM     16  C   UNL     1      17.147  33.267  13.505  0.00  0.00    -0.028 A 
ATOM     17  C   UNL     1      18.544  33.141  13.668  0.00  0.00    +0.038 A 
ATOM     18  C   UNL     1      16.226  33.623  14.641  0.00  0.00    +0.046 C 
BRANCH  14  19
ATOM     19  C   UNL     1      16.715  32.719   9.803  0.00  0.00    +0.019 C 
ATOM     20  C   UNL     1      16.232  33.778   9.137  0.00  0.00    +0.089 C 
BRANCH  20  21
ATOM     21  C   UNL     1      15.396  33.579   7.884  0.00  0.00    +0.091 C 
ATOM     22  N   UNL     1      14.702  33.415   6.843  0.00  0.00    -0.191 NA
ENDBRANCH  20  21
ENDBRANCH  14  19
ENDBRANCH   1  17
BRANCH   8  23
ATOM     23  C   UNL     1      23.236  34.600  17.974  0.00  0.00    +0.034 A 
ATOM     24  C   UNL     1      23.001  33.850  19.133  0.00  0.00    +0.024 A 
ATOM     25  C   UNL     1      23.883  32.842  19.542  0.00  0.00    +0.020 A 
ATOM     26  C   UNL     1      25.031  32.570  18.798  0.00  0.00    +0.052 A 
ATOM     27  C   UNL     1      25.290  33.312  17.645  0.00  0.00    +0.020 A 
ATOM     28  C   UNL     1      24.401  34.317  17.243  0.00  0.00    +0.024 A 
BRANCH  26  29
ATOM     29  C   UNL     1      25.935  31.539  19.215  0.00  0.00    +0.099 C 
ATOM     30  N   UNL     1      26.666  30.703  19.552  0.00  0.00    -0.191 NA
ENDBRANCH  26  29
ENDBRANCH   8  23
TORSDOF 5
ENDMDL
MODEL 2
REMARK minimizedAffinity -7.70418882
REMARK minimizedRMSD -1
REMARK  Name = 
REMARK  7 active torsions:
REMARK  status: ('A' for Active; 'I' for Inactive)
REMARK    1  A    between atoms: C_1  and  C_2
REMARK    2  A    between atoms: C_4  and  C_25
REMARK    3  A    between atoms: C_6  and  C_24
REMARK    4  A    between atoms: C_7  and  N_8
REMARK    5  A    between atoms: N_15  and  C_16
REMARK    6  A    between atoms: C_19  and  C_22
REMARK    7  A    between atoms: C_26  and  C_27
REMARK                            x       y       z     vdW  Elec       q    Type
REMARK                         _______ _______ _______ _____ _____    ______ ____
ROOT
ATOM      1  N   UNL     1      20.003  34.978  15.091  0.00  0.00    -0.299 N 
ATOM      2  C   UNL     1      20.386  34.507  16.346  0.00  0.00    +0.128 A 
ATOM      3  N   UNL     1      20.223  35.367  17.364  0.00  0.00    -0.199 NA
ATOM      4  C   UNL     1      20.560  34.967  18.597  0.00  0.00    +0.221 A 
ATOM      5  N   UNL     1      21.092  33.764  18.860  0.00  0.00    -0.223 NA
ATOM      6  C   UNL     1      21.256  32.930  17.818  0.00  0.00    +0.118 A 
ATOM      7  C   UNL     1      20.911  33.250  16.531  0.00  0.00    +0.063 A 
ATOM      8  N   UNL     1      20.379  35.791  19.705  0.00  0.00    -0.284 N 
ATOM      9  H   UNL     1      19.689  35.940  15.156  0.00  0.00    +0.154 HD
ATOM     10  H   UNL     1      20.761  35.335  20.519  0.00  0.00    +0.155 HD
ENDROOT
BRANCH   1  17
ATOM     11  C   UNL     1      17.170  34.658  14.857  0.00  0.00    +0.046 C 
ATOM     12  C   UNL     1      18.128  34.057  13.862  0.00  0.00    -0.028 A 
ATOM     13  C   UNL     1      17.623  33.244  12.833  0.00  0.00    +0.013 A 
ATOM     14  C   UNL     1      18.480  32.640  11.911  0.00  0.00    -0.024 A 
ATOM     15  C   UNL     1      19.853  32.889  12.003  0.00  0.00    +0.013 A 
ATOM     16  C   UNL     1      20.388  33.680  13.036  0.00  0.00    -0.028 A 
ATOM     17  C   UNL     1      19.518  34.293  13.962  0.00  0.00    +0.038 A 
ATOM     18  C   UNL     1      21.885  33.819  13.113  0.00  0.00    +0.046 C 
BRANCH  14  19
ATOM     19  C   UNL     1      18.008  31.734  10.858  0.00  0.00    +0.019 C 
ATOM     20  C   UNL     1      17.589  32.160   9.657  0.00  0.00    +0.089 C 
BRANCH  20  21
ATOM     21  C   UNL     1      16.937  31.190   8.685  0.00  0.00    +0.091 C 
ATOM     22  N   UNL     1      16.396  30.386   7.878  0.00  0.00    -0.191 NA
ENDBRANCH  20  21
ENDBRANCH  14  19
ENDBRANCH   1  17
BRANCH   8  23
ATOM     23  C   UNL     1      19.732  37.016  19.896  0.00  0.00    +0.034 A 
ATOM     24  C   UNL     1      18.886  37.606  18.949  0.00  0.00    +0.024 A 
ATOM     25  C   UNL     1      18.278  38.846  19.184  0.00  0.00    +0.020 A 
ATOM     26  C   UNL     1      18.515  39.528  20.377  0.00  0.00    +0.052 A 
ATOM     27  C   UNL     1      19.363  38.964  21.331  0.00  0.00    +0.020 A 
ATOM     28  C   UNL     1      19.965  37.723  21.088  0.00  0.00    +0.024 A 
BRANCH  26  29
ATOM     29  C   UNL     1      17.894  40.797  20.620  0.00  0.00    +0.099 C 
ATOM     30  N   UNL     1      17.390  41.824  20.818  0.00  0.00    -0.191 NA
ENDBRANCH  26  29
ENDBRANCH   8  23
TORSDOF 5
ENDMDL
MODEL 3
REMARK minimizedAffinity -7.69312429
REMARK minimizedRMSD -1
REMARK  Name = 
REMARK  7 active torsions:
REMARK  status: ('A' for Active; 'I' for Inactive)
REMARK    1  A    between atoms: C_1  and  C_2
REMARK    2  A    between atoms: C_4  and  C_25
REMARK    3  A    between atoms: C_6  and  C_24
REMARK    4  A    between atoms: C_7  and  N_8
REMARK    5  A    between atoms: N_15  and  C_16
REMARK    6  A    between atoms: C_19  and  C_22
REMARK    7  A    between atoms: C_26  and  C_27
REMARK                            x       y       z     vdW  Elec       q    Type
REMARK                         _______ _______ _______ _____ _____    ______ ____
ROOT
ATOM      1  N   UNL     1      19.276  33.611  14.956  0.00  0.00    -0.299 N 
ATOM      2  C   UNL     1      19.797  34.773  15.523  0.00  0.00    +0.128 A 
ATOM      3  N   UNL     1      20.811  34.596  16.385  0.00  0.00    -0.199 NA
ATOM      4  C   UNL     1      21.363  35.677  16.950  0.00  0.00    +0.221 A 
ATOM      5  N   UNL     1      20.927  36.926  16.731  0.00  0.00    -0.223 NA
ATOM      6  C   UNL     1      19.901  37.071  15.874  0.00  0.00    +0.118 A 
ATOM      7  C   UNL     1      19.299  36.021  15.230  0.00  0.00    +0.063 A 
ATOM      8  N   UNL     1      22.444  35.570  17.822  0.00  0.00    -0.284 N 
ATOM      9  H   UNL     1      19.743  32.794  15.334  0.00  0.00    +0.154 HD
ATOM     10  H   UNL     1      22.659  36.484  18.192  0.00  0.00    +0.155 HD
ENDROOT
BRANCH   1  17
ATOM     11  C   UNL     1      16.418  33.666  14.867  0.00  0.00    +0.046 C 
ATOM     12  C   UNL     1      17.250  33.340  13.654  0.00  0.00    -0.028 A 
ATOM     13  C   UNL     1      16.605  32.970  12.462  0.00  0.00    +0.013 A 
ATOM     14  C   UNL     1      17.340  32.627  11.326  0.00  0.00    -0.024 A 
ATOM     15  C   UNL     1      18.735  32.696  11.379  0.00  0.00    +0.013 A 
ATOM     16  C   UNL     1      19.408  33.041  12.565  0.00  0.00    -0.028 A 
ATOM     17  C   UNL     1      18.661  33.392  13.710  0.00  0.00    +0.038 A 
ATOM     18  C   UNL     1      20.913  32.999  12.560  0.00  0.00    +0.046 C 
BRANCH  14  19
ATOM     19  C   UNL     1      16.714  32.175  10.078  0.00  0.00    +0.019 C 
ATOM     20  C   UNL     1      17.416  31.794   9.000  0.00  0.00    +0.089 C 
BRANCH  20  21
ATOM     21  C   UNL     1      16.710  31.520   7.683  0.00  0.00    +0.091 C 
ATOM     22  N   UNL     1      16.125  31.293   6.589  0.00  0.00    -0.191 NA
ENDBRANCH  20  21
ENDBRANCH  14  19
ENDBRANCH   1  17
BRANCH   8  23
ATOM     23  C   UNL     1      23.283  34.513  18.189  0.00  0.00    +0.034 A 
ATOM     24  C   UNL     1      23.057  33.690  19.299  0.00  0.00    +0.024 A 
ATOM     25  C   UNL     1      23.940  32.655  19.634  0.00  0.00    +0.020 A 
ATOM     26  C   UNL     1      25.080  32.430  18.863  0.00  0.00    +0.052 A 
ATOM     27  C   UNL     1      25.331  33.245  17.758  0.00  0.00    +0.020 A 
ATOM     28  C   UNL     1      24.441  34.275  17.430  0.00  0.00    +0.024 A 
BRANCH  26  29
ATOM     29  C   UNL     1      25.986  31.372  19.203  0.00  0.00    +0.099 C 
ATOM     30  N   UNL     1      26.719  30.516  19.481  0.00  0.00    -0.191 NA
ENDBRANCH  26  29
ENDBRANCH   8  23
TORSDOF 5
ENDMDL
MODEL 4
REMARK minimizedAffinity -7.62953901
REMARK minimizedRMSD -1
REMARK  Name = 
REMARK  7 active torsions:
REMARK  status: ('A' for Active; 'I' for Inactive)
REMARK    1  A    between atoms: C_1  and  C_2
REMARK    2  A    between atoms: C_4  and  C_25
REMARK    3  A    between atoms: C_6  and  C_24
REMARK    4  A    between atoms: C_7  and  N_8
REMARK    5  A    between atoms: N_15  and  C_16
REMARK    6  A    between atoms: C_19  and  C_22
REMARK    7  A    between atoms: C_26  and  C_27
REMARK                            x       y       z     vdW  Elec       q    Type
REMARK                         _______ _______ _______ _____ _____    ______ ____
ROOT
ATOM      1  N   UNL     1      19.641  34.742  15.146  0.00  0.00    -0.299 N 
ATOM      2  C   UNL     1      20.166  34.353  16.377  0.00  0.00    +0.128 A 
ATOM      3  N   UNL     1      20.069  35.260  17.363  0.00  0.00    -0.199 NA
ATOM      4  C   UNL     1      20.542  34.938  18.574  0.00  0.00    +0.221 A 
ATOM      5  N   UNL     1      21.145  33.771  18.841  0.00  0.00    -0.223 NA
ATOM      6  C   UNL     1      21.240  32.889  17.831  0.00  0.00    +0.118 A 
ATOM      7  C   UNL     1      20.757  33.127  16.571  0.00  0.00    +0.063 A 
ATOM      8  N   UNL     1      20.437  35.814  19.652  0.00  0.00    -0.284 N 
ATOM      9  H   UNL     1      19.297  35.695  15.194  0.00  0.00    +0.154 HD
ATOM     10  H   UNL     1      20.917  35.415  20.446  0.00  0.00    +0.155 HD
ENDROOT
BRANCH   1  17
ATOM     11  C   UNL     1      21.389  33.834  13.072  0.00  0.00    +0.046 C 
ATOM     12  C   UNL     1      19.904  33.585  13.032  0.00  0.00    -0.028 A 
ATOM     13  C   UNL     1      19.345  32.961  11.904  0.00  0.00    +0.013 A 
ATOM     14  C   UNL     1      17.969  32.743  11.813  0.00  0.00    -0.024 A 
ATOM     15  C   UNL     1      17.155  33.121  12.885  0.00  0.00    +0.013 A 
ATOM     16  C   UNL     1      17.683  33.768  14.016  0.00  0.00    -0.028 A 
ATOM     17  C   UNL     1      19.076  33.981  14.107  0.00  0.00    +0.038 A 
ATOM     18  C   UNL     1      16.722  34.224  15.081  0.00  0.00    +0.046 C 
BRANCH  14  19
ATOM     19  C   UNL     1      17.332  32.152  10.631  0.00  0.00    +0.019 C 
ATOM     20  C   UNL     1      16.669  32.875   9.716  0.00  0.00    +0.089 C 
BRANCH  20  21
ATOM     21  C   UNL     1      15.874  32.182   8.622  0.00  0.00    +0.091 C 
ATOM     22  N   UNL     1      15.213  31.607   7.714  0.00  0.00    -0.191 NA
ENDBRANCH  20  21
ENDBRANCH  14  19
ENDBRANCH   1  17
BRANCH   8  23
ATOM     23  C   UNL     1      19.764  37.024  19.847  0.00  0.00    +0.034 A 
ATOM     24  C   UNL     1      18.917  37.605  18.894  0.00  0.00    +0.024 A 
ATOM     25  C   UNL     1      18.281  38.830  19.133  0.00  0.00    +0.020 A 
ATOM     26  C   UNL     1      18.490  39.506  20.335  0.00  0.00    +0.052 A 
ATOM     27  C   UNL     1      19.338  38.951  21.294  0.00  0.00    +0.020 A 
ATOM     28  C   UNL     1      19.968  37.725  21.047  0.00  0.00    +0.024 A 
BRANCH  26  29
ATOM     29  C   UNL     1      17.840  40.760  20.581  0.00  0.00    +0.099 C 
ATOM     30  N   UNL     1      17.315  41.775  20.782  0.00  0.00    -0.191 NA
ENDBRANCH  26  29
ENDBRANCH   8  23
TORSDOF 5
ENDMDL
MODEL 5
REMARK minimizedAffinity -7.50725842
REMARK minimizedRMSD -1
REMARK  Name = 
REMARK  7 active torsions:
REMARK  status: ('A' for Active; 'I' for Inactive)
REMARK    1  A    between atoms: C_1  and  C_2
REMARK    2  A    between atoms: C_4  and  C_25
REMARK    3  A    between atoms: C_6  and  C_24
REMARK    4  A    between atoms: C_7  and  N_8
REMARK    5  A    between atoms: N_15  and  C_16
REMARK    6  A    between atoms: C_19  and  C_22
REMARK    7  A    between atoms: C_26  and  C_27
REMARK                            x       y       z     vdW  Elec       q    Type
REMARK                         _______ _______ _______ _____ _____    ______ ____
ROOT
ATOM      1  N   UNL     1      18.264  33.884  15.799  0.00  0.00    -0.299 N 
ATOM      2  C   UNL     1      18.591  34.931  16.659  0.00  0.00    +0.128 A 
ATOM      3  N   UNL     1      19.653  34.720  17.454  0.00  0.00    -0.199 NA
ATOM      4  C   UNL     1      20.025  35.695  18.292  0.00  0.00    +0.221 A 
ATOM      5  N   UNL     1      19.366  36.857  18.409  0.00  0.00    -0.223 NA
ATOM      6  C   UNL     1      18.298  37.034  17.610  0.00  0.00    +0.118 A 
ATOM      7  C   UNL     1      17.868  36.099  16.704  0.00  0.00    +0.063 A 
ATOM      8  N   UNL     1      21.141  35.561  19.115  0.00  0.00    -0.284 N 
ATOM      9  H   UNL     1      18.883  33.096  15.950  0.00  0.00    +0.154 HD
ATOM     10  H   UNL     1      21.204  36.369  19.717  0.00  0.00    +0.155 HD
ENDROOT
BRANCH   1  17
ATOM     11  C   UNL     1      15.406  33.965  15.718  0.00  0.00    +0.046 C 
ATOM     12  C   UNL     1      16.239  33.858  14.467  0.00  0.00    -0.028 A 
ATOM     13  C   UNL     1      15.594  33.709  13.227  0.00  0.00    +0.013 A 
ATOM     14  C   UNL     1      16.330  33.571  12.049  0.00  0.00    -0.024 A 
ATOM     15  C   UNL     1      17.725  33.624  12.115  0.00  0.00    +0.013 A 
ATOM     16  C   UNL     1      18.397  33.749  13.344  0.00  0.00    -0.028 A 
ATOM     17  C   UNL     1      17.650  33.894  14.533  0.00  0.00    +0.038 A 
ATOM     18  C   UNL     1      19.902  33.704  13.333  0.00  0.00    +0.046 C 
BRANCH  14  19
ATOM     19  C   UNL     1      15.704  33.351  10.740  0.00  0.00    +0.019 C 
ATOM     20  C   UNL     1      16.388  33.375   9.587  0.00  0.00    +0.089 C 
BRANCH  20  21
ATOM     21  C   UNL     1      15.652  33.329   8.258  0.00  0.00    +0.091 C 
ATOM     22  N   UNL     1      15.041  33.291   7.155  0.00  0.00    -0.191 NA
ENDBRANCH  20  21
ENDBRANCH  14  19
ENDBRANCH   1  17
BRANCH   8  23
ATOM     23  C   UNL     1      22.168  34.615  19.196  0.00  0.00    +0.034 A 
ATOM     24  C   UNL     1      22.273  33.667  20.221  0.00  0.00    +0.024 A 
ATOM     25  C   UNL     1      23.334  32.753  20.265  0.00  0.00    +0.020 A 
ATOM     26  C   UNL     1      24.322  32.779  19.282  0.00  0.00    +0.052 A 
ATOM     27  C   UNL     1      24.243  33.723  18.256  0.00  0.00    +0.020 A 
ATOM     28  C   UNL     1      23.178  34.631  18.220  0.00  0.00    +0.024 A 
BRANCH  26  29
ATOM     29  C   UNL     1      25.409  31.845  19.325  0.00  0.00    +0.099 C 
ATOM     30  N   UNL     1      26.289  31.088  19.358  0.00  0.00    -0.191 NA
ENDBRANCH  26  29
ENDBRANCH   8  23
TORSDOF 5
ENDMDL
