REMARK  Name = =
REMARK  9 active torsions:
REMARK  status: ('A' for Active; 'I' for Inactive)
REMARK    1  A    between atoms: N_1  and  C_2
REMARK    2  A    between atoms: N_1  and  C_25
REMARK    3  A    between atoms: C_7  and  C_14
REMARK    4  A    between atoms: C_12  and  C_35
REMARK    5  A    between atoms: N_16  and  C_18
REMARK    6  A    between atoms: C_18  and  C_19
REMARK    7  A    between atoms: C_25  and  C_29
REMARK    8  A    between atoms: C_26  and  O_34
REMARK    9  A    between atoms: C_35  and  O_36
REMARK                            x       y       z     vdW  Elec       q    Type
REMARK                         _______ _______ _______ _____ _____    ______ ____
ROOT
ATOM      1  C   UNL     1      15.618  32.166   9.775  0.00  0.00    +0.136 C 
ATOM      2  N   UNL     1      15.318  31.152   8.939  0.00  0.00    -0.199 NA
ATOM      3  C   UNL     1      15.699  31.217   7.651  0.00  0.00    +0.220 C 
ATOM      4  N   UNL     1      16.386  32.252   7.151  0.00  0.00    -0.222 NA
ATOM      5  C   UNL     1      16.706  33.243   8.004  0.00  0.00    +0.131 C 
ATOM      6  C   UNL     1      16.369  33.236   9.337  0.00  0.00    +0.094 C 
ATOM      7  N   UNL     1      15.364  30.193   6.819  0.00  0.00    -0.294 N 
ATOM      8  C   UNL     1      15.823  30.132   5.446  0.00  0.00    +0.108 C 
ATOM      9  C   UNL     1      15.142  28.877   4.902  0.00  0.00    +0.021 C 
ATOM     10  C   UNL     1      15.025  27.986   6.132  0.00  0.00    +0.026 C 
ATOM     11  C   UNL     1      14.702  28.974   7.270  0.00  0.00    +0.102 C 
ENDROOT
BRANCH   6  12
ATOM     12  C   UNL     1      16.847  34.344  10.163  0.00  0.00    +0.249 C 
ATOM     13  O   UNL     1      16.278  35.428  10.093  0.00  0.00    -0.270 OA
ATOM     14  N   UNL     1      17.934  34.164  10.973  0.00  0.00    -0.304 N 
ATOM     15  H   UNL     1      18.188  34.965  11.541  0.00  0.00    +0.149 HD
BRANCH  14  16
ATOM     16  C   UNL     1      18.743  32.958  11.131  0.00  0.00    +0.180 C 
BRANCH  16  17
ATOM     17  C   UNL     1      19.866  33.147  12.129  0.00  0.00    +0.146 C 
ATOM     18  N   UNL     1      20.981  32.404  11.979  0.00  0.00    -0.239 NA
ATOM     19  C   UNL     1      21.971  32.624  12.864  0.00  0.00    +0.114 C 
ATOM     20  C   UNL     1      21.892  33.547  13.879  0.00  0.00    +0.039 C 
ATOM     21  C   UNL     1      20.718  34.258  13.945  0.00  0.00    +0.114 C 
ATOM     22  N   UNL     1      19.695  34.085  13.086  0.00  0.00    -0.239 NA
ENDBRANCH  16  17
ENDBRANCH  14  16
ENDBRANCH   6  12
BRANCH   1  23
ATOM     23  N   UNL     1      15.111  31.980  11.043  0.00  0.00    -0.324 N 
ATOM     24  H   UNL     1      14.637  31.084  11.103  0.00  0.00    +0.148 HD
BRANCH  23  25
ATOM     25  C   UNL     1      14.512  33.059  11.803  0.00  0.00    +0.138 C 
BRANCH  25  29
ATOM     26  C   UNL     1      16.879  33.745  15.345  0.00  0.00    +0.138 C 
ATOM     27  C   UNL     1      17.134  32.627  14.545  0.00  0.00    +0.083 C 
ATOM     28  C   UNL     1      16.369  32.404  13.396  0.00  0.00    +0.028 C 
ATOM     29  C   UNL     1      15.329  33.282  13.055  0.00  0.00    -0.029 C 
ATOM     30  C   UNL     1      15.075  34.394  13.874  0.00  0.00    +0.009 C 
ATOM     31  C   UNL     1      15.839  34.618  15.021  0.00  0.00    +0.047 C 
ATOM     32 CL   UNL     1      18.387  31.506  14.933  0.00  0.00    -0.080 Cl
BRANCH  26  34
ATOM     33  C   UNL     1      16.706  33.994  17.620  0.00  0.00    +0.277 C 
ATOM     34  O   UNL     1      17.588  33.968  16.497  0.00  0.00    -0.494 OA
ENDBRANCH  26  34
ENDBRANCH  25  29
ENDBRANCH  23  25
ENDBRANCH   1  23
BRANCH  11  35
ATOM     35  C   UNL     1      13.189  29.195   7.457  0.00  0.00    +0.178 C 
BRANCH  35  36
ATOM     36  O   UNL     1      12.880  29.659   8.772  0.00  0.00    -0.393 OA
ATOM     37  H   UNL     1      12.793  28.879   9.342  0.00  0.00    +0.209 HD
ENDBRANCH  35  36
ENDBRANCH  11  35
TORSDOF 9
