MODEL 1
REMARK minimizedAffinity -7.75138855
REMARK minimizedRMSD -1
REMARK  Name = 
REMARK  2 active torsions:
REMARK  status: ('A' for Active; 'I' for Inactive)
REMARK    1  A    between atoms: C_4  and  C_7
REMARK    2  A    between atoms: C_7  and  N_8
REMARK                            x       y       z     vdW  Elec       q    Type
REMARK                         _______ _______ _______ _____ _____    ______ ____
ROOT
ATOM      1  N   UNL     1      16.859  32.684   8.323  0.00  0.00    -0.323 N 
ATOM      2  C   UNL     1      16.303  31.555   7.777  0.00  0.00    +0.148 A 
ATOM      3  N   UNL     1      15.014  31.229   8.007  0.00  0.00    -0.219 NA
ATOM      4  C   UNL     1      14.513  30.103   7.455  0.00  0.00    +0.225 A 
ATOM      5  N   UNL     1      15.139  29.216   6.674  0.00  0.00    -0.214 NA
ATOM      6  C   UNL     1      16.422  29.549   6.451  0.00  0.00    +0.183 A 
ATOM      7  C   UNL     1      17.016  30.683   6.974  0.00  0.00    +0.125 A 
ATOM      8  N   UNL     1      18.303  30.637   6.510  0.00  0.00    -0.340 N 
ATOM      9  C   UNL     1      18.431  29.509   5.747  0.00  0.00    +0.199 A 
ATOM     10  N   UNL     1      17.307  28.830   5.692  0.00  0.00    -0.216 NA
ATOM     11  H   UNL     1      17.812  32.949   8.138  0.00  0.00    +0.148 HD
ATOM     12  H   UNL     1      19.029  31.312   6.699  0.00  0.00    +0.167 HD
ENDROOT
BRANCH   1  13
ATOM     13  C   UNL     1      16.057  33.543   9.166  0.00  0.00    +0.138 C 
BRANCH  13  17
ATOM     14  C   UNL     1      17.474  33.219  13.230  0.00  0.00    +0.000 A 
ATOM     15  C   UNL     1      16.159  33.604  12.977  0.00  0.00    +0.000 A 
ATOM     16  C   UNL     1      15.704  33.715  11.662  0.00  0.00    +0.005 A 
ATOM     17  C   UNL     1      16.565  33.447  10.586  0.00  0.00    -0.030 A 
ATOM     18  C   UNL     1      17.883  33.049  10.853  0.00  0.00    +0.005 A 
ATOM     19  C   UNL     1      18.335  32.941  12.169  0.00  0.00    +0.000 A 
ENDBRANCH  13  17
ENDBRANCH   1  13
TORSDOF 2
ENDMDL
MODEL 2
REMARK minimizedAffinity -7.70217752
REMARK minimizedRMSD -1
REMARK  Name = 
REMARK  2 active torsions:
REMARK  status: ('A' for Active; 'I' for Inactive)
REMARK    1  A    between atoms: C_4  and  C_7
REMARK    2  A    between atoms: C_7  and  N_8
REMARK                            x       y       z     vdW  Elec       q    Type
REMARK                         _______ _______ _______ _____ _____    ______ ____
ROOT
ATOM      1  N   UNL     1      17.043  31.203   8.659  0.00  0.00    -0.323 N 
ATOM      2  C   UNL     1      16.520  32.407   9.055  0.00  0.00    +0.148 A 
ATOM      3  N   UNL     1      16.210  33.364   8.155  0.00  0.00    -0.219 NA
ATOM      4  C   UNL     1      15.705  34.538   8.593  0.00  0.00    +0.225 A 
ATOM      5  N   UNL     1      15.454  34.911   9.852  0.00  0.00    -0.214 NA
ATOM      6  C   UNL     1      15.766  33.952  10.740  0.00  0.00    +0.183 A 
ATOM      7  C   UNL     1      16.285  32.721  10.382  0.00  0.00    +0.125 A 
ATOM      8  N   UNL     1      16.454  32.064  11.570  0.00  0.00    -0.340 N 
ATOM      9  C   UNL     1      16.042  32.900  12.571  0.00  0.00    +0.199 A 
ATOM     10  N   UNL     1      15.619  34.051  12.099  0.00  0.00    -0.216 NA
ATOM     11  H   UNL     1      17.254  30.473   9.319  0.00  0.00    +0.148 HD
ATOM     12  H   UNL     1      16.821  31.131  11.688  0.00  0.00    +0.167 HD
ENDROOT
BRANCH   1  13
ATOM     13  C   UNL     1      17.276  30.948   7.255  0.00  0.00    +0.138 C 
BRANCH  13  17
ATOM     14  C   UNL     1      14.275  28.183   5.852  0.00  0.00    +0.000 A 
ATOM     15  C   UNL     1      15.626  27.904   5.658  0.00  0.00    +0.000 A 
ATOM     16  C   UNL     1      16.595  28.804   6.105  0.00  0.00    +0.005 A 
ATOM     17  C   UNL     1      16.220  29.994   6.748  0.00  0.00    -0.030 A 
ATOM     18  C   UNL     1      14.858  30.257   6.949  0.00  0.00    +0.005 A 
ATOM     19  C   UNL     1      13.891  29.357   6.498  0.00  0.00    +0.000 A 
ENDBRANCH  13  17
ENDBRANCH   1  13
TORSDOF 2
ENDMDL
MODEL 3
REMARK minimizedAffinity -7.63919878
REMARK minimizedRMSD -1
REMARK  Name = 
REMARK  2 active torsions:
REMARK  status: ('A' for Active; 'I' for Inactive)
REMARK    1  A    between atoms: C_4  and  C_7
REMARK    2  A    between atoms: C_7  and  N_8
REMARK                            x       y       z     vdW  Elec       q    Type
REMARK                         _______ _______ _______ _____ _____    ______ ____
ROOT
ATOM      1  N   UNL     1      17.079  31.757   8.134  0.00  0.00    -0.323 N 
ATOM      2  C   UNL     1      16.846  32.580   9.206  0.00  0.00    +0.148 A 
ATOM      3  N   UNL     1      15.898  33.539   9.157  0.00  0.00    -0.219 NA
ATOM      4  C   UNL     1      15.710  34.332  10.234  0.00  0.00    +0.225 A 
ATOM      5  N   UNL     1      16.360  34.306  11.403  0.00  0.00    -0.214 NA
ATOM      6  C   UNL     1      17.302  33.348  11.441  0.00  0.00    +0.183 A 
ATOM      7  C   UNL     1      17.561  32.491  10.387  0.00  0.00    +0.125 A 
ATOM      8  N   UNL     1      18.575  31.691  10.840  0.00  0.00    -0.340 N 
ATOM      9  C   UNL     1      18.880  32.086  12.113  0.00  0.00    +0.199 A 
ATOM     10  N   UNL     1      18.124  33.087  12.506  0.00  0.00    -0.216 NA
ATOM     11  H   UNL     1      17.766  31.022   8.168  0.00  0.00    +0.148 HD
ATOM     12  H   UNL     1      19.021  30.946  10.325  0.00  0.00    +0.167 HD
ENDROOT
BRANCH   1  13
ATOM     13  C   UNL     1      16.304  31.917   6.924  0.00  0.00    +0.138 C 
BRANCH  13  17
ATOM     14  C   UNL     1      13.846  28.423   6.309  0.00  0.00    +0.000 A 
ATOM     15  C   UNL     1      13.491  29.366   7.270  0.00  0.00    +0.000 A 
ATOM     16  C   UNL     1      14.291  30.492   7.473  0.00  0.00    +0.005 A 
ATOM     17  C   UNL     1      15.459  30.681   6.717  0.00  0.00    -0.030 A 
ATOM     18  C   UNL     1      15.800  29.731   5.744  0.00  0.00    +0.005 A 
ATOM     19  C   UNL     1      14.999  28.606   5.545  0.00  0.00    +0.000 A 
ENDBRANCH  13  17
ENDBRANCH   1  13
TORSDOF 2
ENDMDL
MODEL 4
REMARK minimizedAffinity -7.52039194
REMARK minimizedRMSD -1
REMARK  Name = 
REMARK  2 active torsions:
REMARK  status: ('A' for Active; 'I' for Inactive)
REMARK    1  A    between atoms: C_4  and  C_7
REMARK    2  A    between atoms: C_7  and  N_8
REMARK                            x       y       z     vdW  Elec       q    Type
REMARK                         _______ _______ _______ _____ _____    ______ ____
ROOT
ATOM      1  N   UNL     1      15.495  32.140   8.209  0.00  0.00    -0.323 N 
ATOM      2  C   UNL     1      16.084  31.176   7.431  0.00  0.00    +0.148 A 
ATOM      3  N   UNL     1      17.388  31.255   7.089  0.00  0.00    -0.219 NA
ATOM      4  C   UNL     1      17.922  30.287   6.314  0.00  0.00    +0.225 A 
ATOM      5  N   UNL     1      17.319  29.205   5.808  0.00  0.00    -0.214 NA
ATOM      6  C   UNL     1      16.023  29.137   6.154  0.00  0.00    +0.183 A 
ATOM      7  C   UNL     1      15.393  30.081   6.945  0.00  0.00    +0.125 A 
ATOM      8  N   UNL     1      14.104  29.635   7.046  0.00  0.00    -0.340 N 
ATOM      9  C   UNL     1      14.008  28.472   6.333  0.00  0.00    +0.199 A 
ATOM     10  N   UNL     1      15.155  28.144   5.782  0.00  0.00    -0.216 NA
ATOM     11  H   UNL     1      14.531  32.078   8.491  0.00  0.00    +0.148 HD
ATOM     12  H   UNL     1      13.356  30.085   7.554  0.00  0.00    +0.167 HD
ENDROOT
BRANCH   1  13
ATOM     13  C   UNL     1      16.275  33.267   8.670  0.00  0.00    +0.138 C 
BRANCH  13  17
ATOM     14  C   UNL     1      17.153  32.806  12.870  0.00  0.00    +0.000 A 
ATOM     15  C   UNL     1      18.061  32.357  11.914  0.00  0.00    +0.000 A 
ATOM     16  C   UNL     1      17.772  32.500  10.556  0.00  0.00    +0.005 A 
ATOM     17  C   UNL     1      16.567  33.090  10.142  0.00  0.00    -0.030 A 
ATOM     18  C   UNL     1      15.667  33.548  11.114  0.00  0.00    +0.005 A 
ATOM     19  C   UNL     1      15.958  33.402  12.471  0.00  0.00    +0.000 A 
ENDBRANCH  13  17
ENDBRANCH   1  13
TORSDOF 2
ENDMDL
MODEL 5
REMARK minimizedAffinity -7.50872421
REMARK minimizedRMSD -1
REMARK  Name = 
REMARK  2 active torsions:
REMARK  status: ('A' for Active; 'I' for Inactive)
REMARK    1  A    between atoms: C_4  and  C_7
REMARK    2  A    between atoms: C_7  and  N_8
REMARK                            x       y       z     vdW  Elec       q    Type
REMARK                         _______ _______ _______ _____ _____    ______ ____
ROOT
ATOM      1  N   UNL     1      16.197  31.744   9.145  0.00  0.00    -0.323 N 
ATOM      2  C   UNL     1      16.894  32.190  10.239  0.00  0.00    +0.148 A 
ATOM      3  N   UNL     1      18.237  32.075  10.306  0.00  0.00    -0.219 NA
ATOM      4  C   UNL     1      18.879  32.521  11.408  0.00  0.00    +0.225 A 
ATOM      5  N   UNL     1      18.353  33.086  12.499  0.00  0.00    -0.214 NA
ATOM      6  C   UNL     1      17.016  33.194  12.423  0.00  0.00    +0.183 A 
ATOM      7  C   UNL     1      16.277  32.768  11.334  0.00  0.00    +0.125 A 
ATOM      8  N   UNL     1      14.982  33.059  11.666  0.00  0.00    -0.340 N 
ATOM      9  C   UNL     1      14.989  33.634  12.907  0.00  0.00    +0.199 A 
ATOM     10  N   UNL     1      16.208  33.730  13.391  0.00  0.00    -0.216 NA
ATOM     11  H   UNL     1      15.198  31.847   9.073  0.00  0.00    +0.148 HD
ATOM     12  H   UNL     1      14.167  32.880  11.099  0.00  0.00    +0.167 HD
ENDROOT
BRANCH   1  13
ATOM     13  C   UNL     1      16.906  31.135   8.041  0.00  0.00    +0.138 C 
BRANCH  13  17
ATOM     14  C   UNL     1      14.208  28.520   5.920  0.00  0.00    +0.000 A 
ATOM     15  C   UNL     1      15.585  28.364   5.780  0.00  0.00    +0.000 A 
ATOM     16  C   UNL     1      16.456  29.216   6.462  0.00  0.00    +0.005 A 
ATOM     17  C   UNL     1      15.956  30.236   7.285  0.00  0.00    -0.030 A 
ATOM     18  C   UNL     1      14.568  30.375   7.427  0.00  0.00    +0.005 A 
ATOM     19  C   UNL     1      13.699  29.523   6.743  0.00  0.00    +0.000 A 
ENDBRANCH  13  17
ENDBRANCH   1  13
TORSDOF 2
ENDMDL
