MODEL 1
REMARK minimizedAffinity -9.51159286
REMARK minimizedRMSD -1
REMARK  Name = 
REMARK  8 active torsions:
REMARK  status: ('A' for Active; 'I' for Inactive)
REMARK    1  A    between atoms: C_1  and  O_2
REMARK    2  A    between atoms: O_2  and  C_3
REMARK    3  A    between atoms: C_4  and  O_22
REMARK    4  A    between atoms: N_13  and  C_14
REMARK    5  A    between atoms: O_22  and  C_23
REMARK    6  A    between atoms: C_23  and  C_24
REMARK    7  A    between atoms: C_24  and  C_25
REMARK    8  A    between atoms: C_25  and  N_26
REMARK                            x       y       z     vdW  Elec       q    Type
REMARK                         _______ _______ _______ _____ _____    ______ ____
ROOT
ATOM      1  C   UNL     1      17.306  34.146  17.903  0.00  0.00    +0.164 A 
ATOM      2  C   UNL     1      18.236  33.567  17.043  0.00  0.00    +0.163 A 
ATOM      3  C   UNL     1      17.861  33.345  15.715  0.00  0.00    +0.062 A 
ATOM      4  C   UNL     1      16.597  33.763  15.220  0.00  0.00    +0.044 A 
ATOM      5  C   UNL     1      15.714  34.425  16.083  0.00  0.00    +0.080 A 
ATOM      6  C   UNL     1      16.078  34.599  17.409  0.00  0.00    +0.078 A 
ATOM      7  N   UNL     1      14.531  34.897  15.690  0.00  0.00    -0.235 NA
ATOM      8  C   UNL     1      14.205  34.707  14.409  0.00  0.00    +0.223 A 
ATOM      9  N   UNL     1      14.951  34.083  13.495  0.00  0.00    -0.220 NA
ATOM     10  C   UNL     1      16.135  33.589  13.900  0.00  0.00    +0.134 A 
ATOM     11  N   UNL     1      16.930  32.878  12.972  0.00  0.00    -0.299 N 
ATOM     12  H   UNL     1      17.325  32.037  13.374  0.00  0.00    +0.154 HD
ENDROOT
BRANCH  11  13
ATOM     13  C   UNL     1      16.893  32.877  11.564  0.00  0.00    +0.034 A 
ATOM     14  C   UNL     1      16.154  33.872  10.901  0.00  0.00    +0.046 A 
ATOM     15  C   UNL     1      16.083  33.898   9.504  0.00  0.00    +0.078 A 
ATOM     16  C   UNL     1      16.734  32.923   8.757  0.00  0.00    +0.142 A 
ATOM     17  C   UNL     1      17.454  31.920   9.392  0.00  0.00    +0.041 A 
ATOM     18  C   UNL     1      17.528  31.897  10.788  0.00  0.00    +0.026 A 
ATOM     19  F   UNL     1      16.675  32.928   7.417  0.00  0.00    -0.204 F 
ATOM     20 CL   UNL     1      15.179  35.143   8.731  0.00  0.00    -0.081 Cl
ENDBRANCH  11  13
BRANCH   1  22
ATOM     21  C   UNL     1      18.381  35.504  19.401  0.00  0.00    +0.277 C 
ATOM     22  O   UNL     1      17.568  34.335  19.234  0.00  0.00    -0.491 OA
ENDBRANCH   1  22
BRANCH   2  23
ATOM     23  O   UNL     1      19.501  33.154  17.349  0.00  0.00    -0.488 OA
BRANCH  23  24
ATOM     24  C   UNL     1      20.603  33.888  16.807  0.00  0.00    +0.234 C 
BRANCH  24  25
ATOM     25  C   UNL     1      21.761  32.976  16.402  0.00  0.00    +0.092 C 
BRANCH  25  26
ATOM     26  C   UNL     1      21.618  32.338  15.025  0.00  0.00    +0.134 C 
BRANCH  26  27
ATOM     27  N   UNL     1      22.460  32.938  13.925  0.00  0.00    +0.239 N 
ATOM     28  C   UNL     1      23.050  31.943  12.925  0.00  0.00    +0.160 C 
ATOM     29  C   UNL     1      24.054  32.674  12.023  0.00  0.00    +0.210 C 
ATOM     30  O   UNL     1      23.438  33.778  11.351  0.00  0.00    -0.369 OA
ATOM     31  C   UNL     1      22.908  34.744  12.267  0.00  0.00    +0.210 C 
ATOM     32  C   UNL     1      21.845  34.114  13.178  0.00  0.00    +0.160 C 
ATOM     33  H   UNL     1      23.272  33.335  14.416  0.00  0.00    +0.203 HD
ENDBRANCH  26  27
ENDBRANCH  25  26
ENDBRANCH  24  25
ENDBRANCH  23  24
ENDBRANCH   2  23
TORSDOF 7
ENDMDL
MODEL 2
REMARK minimizedAffinity -9.31928635
REMARK minimizedRMSD -1
REMARK  Name = 
REMARK  8 active torsions:
REMARK  status: ('A' for Active; 'I' for Inactive)
REMARK    1  A    between atoms: C_1  and  O_2
REMARK    2  A    between atoms: O_2  and  C_3
REMARK    3  A    between atoms: C_4  and  O_22
REMARK    4  A    between atoms: N_13  and  C_14
REMARK    5  A    between atoms: O_22  and  C_23
REMARK    6  A    between atoms: C_23  and  C_24
REMARK    7  A    between atoms: C_24  and  C_25
REMARK    8  A    between atoms: C_25  and  N_26
REMARK                            x       y       z     vdW  Elec       q    Type
REMARK                         _______ _______ _______ _____ _____    ______ ____
ROOT
ATOM      1  C   UNL     1      20.532  33.078  16.975  0.00  0.00    +0.164 A 
ATOM      2  C   UNL     1      19.188  33.215  16.639  0.00  0.00    +0.163 A 
ATOM      3  C   UNL     1      18.844  33.250  15.285  0.00  0.00    +0.062 A 
ATOM      4  C   UNL     1      19.819  33.076  14.266  0.00  0.00    +0.044 A 
ATOM      5  C   UNL     1      21.151  32.849  14.633  0.00  0.00    +0.080 A 
ATOM      6  C   UNL     1      21.488  32.861  15.977  0.00  0.00    +0.078 A 
ATOM      7  N   UNL     1      22.120  32.623  13.745  0.00  0.00    -0.235 NA
ATOM      8  C   UNL     1      21.767  32.625  12.457  0.00  0.00    +0.223 A 
ATOM      9  N   UNL     1      20.538  32.841  11.982  0.00  0.00    -0.220 NA
ATOM     10  C   UNL     1      19.566  33.089  12.880  0.00  0.00    +0.134 A 
ATOM     11  N   UNL     1      18.263  33.372  12.411  0.00  0.00    -0.299 N 
ATOM     12  H   UNL     1      17.841  34.149  12.904  0.00  0.00    +0.154 HD
ENDROOT
BRANCH  11  13
ATOM     13  C   UNL     1      17.672  33.097  11.163  0.00  0.00    +0.034 A 
ATOM     14  C   UNL     1      16.830  34.059  10.580  0.00  0.00    +0.046 A 
ATOM     15  C   UNL     1      16.214  33.818   9.347  0.00  0.00    +0.078 A 
ATOM     16  C   UNL     1      16.421  32.609   8.692  0.00  0.00    +0.142 A 
ATOM     17  C   UNL     1      17.234  31.637   9.259  0.00  0.00    +0.041 A 
ATOM     18  C   UNL     1      17.851  31.880  10.490  0.00  0.00    +0.026 A 
ATOM     19  F   UNL     1      15.837  32.358   7.512  0.00  0.00    -0.204 F 
ATOM     20 CL   UNL     1      15.202  35.030   8.661  0.00  0.00    -0.081 Cl
ENDBRANCH  11  13
BRANCH   1  22
ATOM     21  C   UNL     1      21.917  34.160  18.443  0.00  0.00    +0.277 C 
ATOM     22  O   UNL     1      20.961  33.104  18.275  0.00  0.00    -0.491 OA
ENDBRANCH   1  22
BRANCH   2  23
ATOM     23  O   UNL     1      18.130  33.347  17.494  0.00  0.00    -0.488 OA
BRANCH  23  24
ATOM     24  C   UNL     1      18.080  34.502  18.335  0.00  0.00    +0.234 C 
BRANCH  24  25
ATOM     25  C   UNL     1      18.242  35.801  17.543  0.00  0.00    +0.092 C 
BRANCH  25  26
ATOM     26  C   UNL     1      16.944  36.372  16.984  0.00  0.00    +0.134 C 
BRANCH  26  27
ATOM     27  N   UNL     1      16.048  35.396  16.259  0.00  0.00    +0.239 N 
ATOM     28  C   UNL     1      14.601  35.336  16.748  0.00  0.00    +0.160 C 
ATOM     29  C   UNL     1      13.893  34.150  16.079  0.00  0.00    +0.210 C 
ATOM     30  O   UNL     1      13.952  34.251  14.652  0.00  0.00    -0.369 OA
ATOM     31  C   UNL     1      15.299  34.273  14.165  0.00  0.00    +0.210 C 
ATOM     32  C   UNL     1      16.074  35.468  14.738  0.00  0.00    +0.160 C 
ATOM     33  H   UNL     1      16.444  34.474  16.484  0.00  0.00    +0.203 HD
ENDBRANCH  26  27
ENDBRANCH  25  26
ENDBRANCH  24  25
ENDBRANCH  23  24
ENDBRANCH   2  23
TORSDOF 7
ENDMDL
MODEL 3
REMARK minimizedAffinity -9.12701511
REMARK minimizedRMSD -1
REMARK  Name = 
REMARK  8 active torsions:
REMARK  status: ('A' for Active; 'I' for Inactive)
REMARK    1  A    between atoms: C_1  and  O_2
REMARK    2  A    between atoms: O_2  and  C_3
REMARK    3  A    between atoms: C_4  and  O_22
REMARK    4  A    between atoms: N_13  and  C_14
REMARK    5  A    between atoms: O_22  and  C_23
REMARK    6  A    between atoms: C_23  and  C_24
REMARK    7  A    between atoms: C_24  and  C_25
REMARK    8  A    between atoms: C_25  and  N_26
REMARK                            x       y       z     vdW  Elec       q    Type
REMARK                         _______ _______ _______ _____ _____    ______ ____
ROOT
ATOM      1  C   UNL     1      18.197  36.172  16.881  0.00  0.00    +0.164 A 
ATOM      2  C   UNL     1      19.099  35.881  15.861  0.00  0.00    +0.163 A 
ATOM      3  C   UNL     1      18.632  35.185  14.743  0.00  0.00    +0.062 A 
ATOM      4  C   UNL     1      17.261  34.842  14.600  0.00  0.00    +0.044 A 
ATOM      5  C   UNL     1      16.357  35.226  15.598  0.00  0.00    +0.080 A 
ATOM      6  C   UNL     1      16.839  35.875  16.724  0.00  0.00    +0.078 A 
ATOM      7  N   UNL     1      15.047  34.992  15.521  0.00  0.00    -0.235 NA
ATOM      8  C   UNL     1      14.614  34.357  14.429  0.00  0.00    +0.223 A 
ATOM      9  N   UNL     1      15.374  33.932  13.417  0.00  0.00    -0.220 NA
ATOM     10  C   UNL     1      16.699  34.150  13.509  0.00  0.00    +0.134 A 
ATOM     11  N   UNL     1      17.541  33.668  12.481  0.00  0.00    -0.299 N 
ATOM     12  H   UNL     1      18.377  33.231  12.847  0.00  0.00    +0.154 HD
ENDROOT
BRANCH  11  13
ATOM     13  C   UNL     1      17.230  33.294  11.159  0.00  0.00    +0.034 A 
ATOM     14  C   UNL     1      16.410  34.134  10.387  0.00  0.00    +0.046 A 
ATOM     15  C   UNL     1      16.068  33.792   9.075  0.00  0.00    +0.078 A 
ATOM     16  C   UNL     1      16.530  32.601   8.525  0.00  0.00    +0.142 A 
ATOM     17  C   UNL     1      17.326  31.746   9.276  0.00  0.00    +0.041 A 
ATOM     18  C   UNL     1      17.670  32.092  10.587  0.00  0.00    +0.026 A 
ATOM     19  F   UNL     1      16.210  32.252   7.270  0.00  0.00    -0.204 F 
ATOM     20 CL   UNL     1      15.073  34.857   8.159  0.00  0.00    -0.081 Cl
ENDBRANCH  11  13
BRANCH   1  22
ATOM     21  C   UNL     1      18.448  35.875  19.138  0.00  0.00    +0.277 C 
ATOM     22  O   UNL     1      18.586  36.788  18.040  0.00  0.00    -0.491 OA
ENDBRANCH   1  22
BRANCH   2  23
ATOM     23  O   UNL     1      20.431  36.181  15.825  0.00  0.00    -0.488 OA
BRANCH  23  24
ATOM     24  C   UNL     1      21.242  35.793  16.937  0.00  0.00    +0.234 C 
BRANCH  24  25
ATOM     25  C   UNL     1      21.238  34.279  17.154  0.00  0.00    +0.092 C 
BRANCH  25  26
ATOM     26  C   UNL     1      22.111  33.494  16.181  0.00  0.00    +0.134 C 
BRANCH  26  27
ATOM     27  N   UNL     1      21.963  33.851  14.721  0.00  0.00    +0.239 N 
ATOM     28  C   UNL     1      23.208  34.436  14.054  0.00  0.00    +0.160 C 
ATOM     29  C   UNL     1      22.832  34.956  12.659  0.00  0.00    +0.210 C 
ATOM     30  O   UNL     1      22.256  33.917  11.858  0.00  0.00    -0.369 OA
ATOM     31  C   UNL     1      21.066  33.376  12.445  0.00  0.00    +0.210 C 
ATOM     32  C   UNL     1      21.358  32.776  13.828  0.00  0.00    +0.160 C 
ATOM     33  H   UNL     1      21.274  34.614  14.717  0.00  0.00    +0.203 HD
ENDBRANCH  26  27
ENDBRANCH  25  26
ENDBRANCH  24  25
ENDBRANCH  23  24
ENDBRANCH   2  23
TORSDOF 7
ENDMDL
MODEL 4
REMARK minimizedAffinity -9.08297729
REMARK minimizedRMSD -1
REMARK  Name = 
REMARK  8 active torsions:
REMARK  status: ('A' for Active; 'I' for Inactive)
REMARK    1  A    between atoms: C_1  and  O_2
REMARK    2  A    between atoms: O_2  and  C_3
REMARK    3  A    between atoms: C_4  and  O_22
REMARK    4  A    between atoms: N_13  and  C_14
REMARK    5  A    between atoms: O_22  and  C_23
REMARK    6  A    between atoms: C_23  and  C_24
REMARK    7  A    between atoms: C_24  and  C_25
REMARK    8  A    between atoms: C_25  and  N_26
REMARK                            x       y       z     vdW  Elec       q    Type
REMARK                         _______ _______ _______ _____ _____    ______ ____
ROOT
ATOM      1  C   UNL     1      20.454  32.834  15.708  0.00  0.00    +0.164 A 
ATOM      2  C   UNL     1      20.818  32.650  14.377  0.00  0.00    +0.163 A 
ATOM      3  C   UNL     1      19.818  32.706  13.403  0.00  0.00    +0.062 A 
ATOM      4  C   UNL     1      18.473  33.017  13.736  0.00  0.00    +0.044 A 
ATOM      5  C   UNL     1      18.149  33.288  15.071  0.00  0.00    +0.080 A 
ATOM      6  C   UNL     1      19.140  33.185  16.035  0.00  0.00    +0.078 A 
ATOM      7  N   UNL     1      16.925  33.640  15.465  0.00  0.00    -0.235 NA
ATOM      8  C   UNL     1      15.990  33.723  14.515  0.00  0.00    +0.223 A 
ATOM      9  N   UNL     1      16.170  33.479  13.215  0.00  0.00    -0.220 NA
ATOM     10  C   UNL     1      17.402  33.104  12.824  0.00  0.00    +0.134 A 
ATOM     11  N   UNL     1      17.618  32.787  11.463  0.00  0.00    -0.299 N 
ATOM     12  H   UNL     1      18.176  31.950  11.351  0.00  0.00    +0.154 HD
ENDROOT
BRANCH  11  13
ATOM     13  C   UNL     1      16.862  33.130  10.325  0.00  0.00    +0.034 A 
ATOM     14  C   UNL     1      16.648  32.160   9.331  0.00  0.00    +0.046 A 
ATOM     15  C   UNL     1      15.914  32.465   8.181  0.00  0.00    +0.078 A 
ATOM     16  C   UNL     1      15.400  33.744   8.004  0.00  0.00    +0.142 A 
ATOM     17  C   UNL     1      15.616  34.724   8.964  0.00  0.00    +0.041 A 
ATOM     18  C   UNL     1      16.347  34.417  10.116  0.00  0.00    +0.026 A 
ATOM     19  F   UNL     1      14.697  34.058   6.906  0.00  0.00    -0.204 F 
ATOM     20 CL   UNL     1      15.662  31.243   6.994  0.00  0.00    -0.081 Cl
ENDBRANCH  11  13
BRANCH   1  22
ATOM     21  C   UNL     1      20.765  33.200  17.947  0.00  0.00    +0.277 C 
ATOM     22  O   UNL     1      21.359  32.727  16.730  0.00  0.00    -0.491 OA
ENDBRANCH   1  22
BRANCH   2  23
ATOM     23  O   UNL     1      22.068  32.389  13.890  0.00  0.00    -0.488 OA
BRANCH  23  24
ATOM     24  C   UNL     1      22.486  33.067  12.701  0.00  0.00    +0.234 C 
BRANCH  24  25
ATOM     25  C   UNL     1      23.319  34.312  13.009  0.00  0.00    +0.092 C 
BRANCH  25  26
ATOM     26  C   UNL     1      22.541  35.622  12.981  0.00  0.00    +0.134 C 
BRANCH  26  27
ATOM     27  N   UNL     1      22.122  36.174  14.323  0.00  0.00    +0.239 N 
ATOM     28  C   UNL     1      20.617  36.194  14.589  0.00  0.00    +0.160 C 
ATOM     29  C   UNL     1      20.345  36.987  15.876  0.00  0.00    +0.210 C 
ATOM     30  O   UNL     1      21.059  36.431  16.986  0.00  0.00    -0.369 OA
ATOM     31  C   UNL     1      22.477  36.433  16.775  0.00  0.00    +0.210 C 
ATOM     32  C   UNL     1      22.851  35.610  15.535  0.00  0.00    +0.160 C 
ATOM     33  H   UNL     1      22.400  37.163  14.287  0.00  0.00    +0.203 HD
ENDBRANCH  26  27
ENDBRANCH  25  26
ENDBRANCH  24  25
ENDBRANCH  23  24
ENDBRANCH   2  23
TORSDOF 7
ENDMDL
MODEL 5
REMARK minimizedAffinity -9.0584774
REMARK minimizedRMSD -1
REMARK  Name = 
REMARK  8 active torsions:
REMARK  status: ('A' for Active; 'I' for Inactive)
REMARK    1  A    between atoms: C_1  and  O_2
REMARK    2  A    between atoms: O_2  and  C_3
REMARK    3  A    between atoms: C_4  and  O_22
REMARK    4  A    between atoms: N_13  and  C_14
REMARK    5  A    between atoms: O_22  and  C_23
REMARK    6  A    between atoms: C_23  and  C_24
REMARK    7  A    between atoms: C_24  and  C_25
REMARK    8  A    between atoms: C_25  and  N_26
REMARK                            x       y       z     vdW  Elec       q    Type
REMARK                         _______ _______ _______ _____ _____    ______ ____
ROOT
ATOM      1  C   UNL     1      17.991  34.231  17.382  0.00  0.00    +0.164 A 
ATOM      2  C   UNL     1      18.839  33.949  16.315  0.00  0.00    +0.163 A 
ATOM      3  C   UNL     1      18.272  33.734  15.056  0.00  0.00    +0.062 A 
ATOM      4  C   UNL     1      16.875  33.871  14.838  0.00  0.00    +0.044 A 
ATOM      5  C   UNL     1      16.054  34.245  15.909  0.00  0.00    +0.080 A 
ATOM      6  C   UNL     1      16.621  34.411  17.162  0.00  0.00    +0.078 A 
ATOM      7  N   UNL     1      14.742  34.448  15.782  0.00  0.00    -0.235 NA
ATOM      8  C   UNL     1      14.223  34.272  14.564  0.00  0.00    +0.223 A 
ATOM      9  N   UNL     1      14.896  33.906  13.471  0.00  0.00    -0.220 NA
ATOM     10  C   UNL     1      16.215  33.682  13.607  0.00  0.00    +0.134 A 
ATOM     11  N   UNL     1      16.951  33.243  12.482  0.00  0.00    -0.299 N 
ATOM     12  H   UNL     1      17.592  32.495  12.715  0.00  0.00    +0.154 HD
ENDROOT
BRANCH  11  13
ATOM     13  C   UNL     1      16.642  33.328  11.111  0.00  0.00    +0.034 A 
ATOM     14  C   UNL     1      16.951  32.242  10.274  0.00  0.00    +0.046 A 
ATOM     15  C   UNL     1      16.671  32.293   8.905  0.00  0.00    +0.078 A 
ATOM     16  C   UNL     1      16.093  33.431   8.355  0.00  0.00    +0.142 A 
ATOM     17  C   UNL     1      15.796  34.523   9.160  0.00  0.00    +0.041 A 
ATOM     18  C   UNL     1      16.074  34.470  10.530  0.00  0.00    +0.026 A 
ATOM     19  F   UNL     1      15.820  33.501   7.044  0.00  0.00    -0.204 F 
ATOM     20 CL   UNL     1      17.052  30.935   7.917  0.00  0.00    -0.081 Cl
ENDBRANCH  11  13
BRANCH   1  22
ATOM     21  C   UNL     1      18.421  35.775  19.018  0.00  0.00    +0.277 C 
ATOM     22  O   UNL     1      18.458  34.387  18.660  0.00  0.00    -0.491 OA
ENDBRANCH   1  22
BRANCH   2  23
ATOM     23  O   UNL     1      20.200  33.828  16.349  0.00  0.00    -0.488 OA
BRANCH  23  24
ATOM     24  C   UNL     1      20.973  34.980  16.699  0.00  0.00    +0.234 C 
BRANCH  24  25
ATOM     25  C   UNL     1      20.995  36.022  15.579  0.00  0.00    +0.092 C 
BRANCH  25  26
ATOM     26  C   UNL     1      22.074  35.801  14.526  0.00  0.00    +0.134 C 
BRANCH  26  27
ATOM     27  N   UNL     1      22.199  34.395  13.988  0.00  0.00    +0.239 N 
ATOM     28  C   UNL     1      21.195  34.011  12.901  0.00  0.00    +0.160 C 
ATOM     29  C   UNL     1      21.299  32.503  12.632  0.00  0.00    +0.210 C 
ATOM     30  O   UNL     1      22.632  32.136  12.257  0.00  0.00    -0.369 OA
ATOM     31  C   UNL     1      23.588  32.454  13.275  0.00  0.00    +0.210 C 
ATOM     32  C   UNL     1      23.598  33.960  13.573  0.00  0.00    +0.160 C 
ATOM     33  H   UNL     1      21.966  33.796  14.791  0.00  0.00    +0.203 HD
ENDBRANCH  26  27
ENDBRANCH  25  26
ENDBRANCH  24  25
ENDBRANCH  23  24
ENDBRANCH   2  23
TORSDOF 7
ENDMDL
