REMARK  Name = 
REMARK  9 active torsions:
REMARK  status: ('A' for Active; 'I' for Inactive)
REMARK    1  A    between atoms: C_1  and  O_2
REMARK    2  A    between atoms: O_2  and  C_3
REMARK    3  A    between atoms: C_6  and  C_9
REMARK    4  A    between atoms: C_9  and  N_10
REMARK    5  A    between atoms: C_16  and  C_17
REMARK    6  A    between atoms: N_19  and  C_20
REMARK    7  A    between atoms: C_20  and  C_21
REMARK    8  A    between atoms: C_31  and  C_32
REMARK    9  A    between atoms: C_32  and  O_33
REMARK                            x       y       z     vdW  Elec       q    Type
REMARK                         _______ _______ _______ _____ _____    ______ ____
ROOT
ATOM      1  N   UNL     1       3.536  -5.318   1.633  0.00  0.00    -0.324 N 
ATOM      2  C   UNL     1       4.390  -6.400   1.637  0.00  0.00    +0.136 A 
ATOM      3  N   UNL     1       5.387  -6.281   0.738  0.00  0.00    -0.199 NA
ATOM      4  C   UNL     1       6.331  -7.236   0.662  0.00  0.00    +0.220 A 
ATOM      5  N   UNL     1       6.322  -8.326   1.441  0.00  0.00    -0.222 NA
ATOM      6  C   UNL     1       5.303  -8.447   2.312  0.00  0.00    +0.131 A 
ATOM      7  C   UNL     1       4.292  -7.523   2.431  0.00  0.00    +0.094 A 
ATOM      8  N   UNL     1       7.343  -7.083  -0.235  0.00  0.00    -0.294 N 
ATOM      9  C   UNL     1       8.341  -8.110  -0.456  0.00  0.00    +0.108 C 
ATOM     10  C   UNL     1       9.290  -7.469  -1.467  0.00  0.00    +0.021 C 
ATOM     11  C   UNL     1       8.376  -6.543  -2.260  0.00  0.00    +0.026 C 
ATOM     12  C   UNL     1       7.407  -5.989  -1.198  0.00  0.00    +0.102 C 
ATOM     13  H   UNL     1       3.815  -4.654   0.916  0.00  0.00    +0.148 HD
ENDROOT
BRANCH   7  14
ATOM     14  C   UNL     1       3.209  -7.820   3.367  0.00  0.00    +0.249 C 
ATOM     15  O   UNL     1       3.452  -7.856   4.568  0.00  0.00    -0.270 OA
ATOM     16  N   UNL     1       1.954  -8.082   2.889  0.00  0.00    -0.304 N 
ATOM     17  H   UNL     1       1.247  -8.247   3.597  0.00  0.00    +0.149 HD
BRANCH  16  18
ATOM     18  C   UNL     1       1.518  -8.124   1.495  0.00  0.00    +0.180 C 
BRANCH  18  19
ATOM     19  C   UNL     1       0.119  -8.683   1.349  0.00  0.00    +0.146 A 
ATOM     20  N   UNL     1      -0.034  -9.846   0.684  0.00  0.00    -0.239 NA
ATOM     21  C   UNL     1      -1.288 -10.330   0.604  0.00  0.00    +0.114 A 
ATOM     22  C   UNL     1      -2.380  -9.706   1.157  0.00  0.00    +0.039 A 
ATOM     23  C   UNL     1      -2.120  -8.530   1.819  0.00  0.00    +0.114 A 
ATOM     24  N   UNL     1      -0.888  -7.999   1.936  0.00  0.00    -0.239 NA
ENDBRANCH  18  19
ENDBRANCH  16  18
ENDBRANCH   7  14
BRANCH   1  25
ATOM     25  C   UNL     1       3.015  -4.739   2.855  0.00  0.00    +0.138 C 
BRANCH  25  29
ATOM     26  C   UNL     1       0.914  -1.118   1.810  0.00  0.00    +0.138 A 
ATOM     27  C   UNL     1       2.239  -1.050   2.250  0.00  0.00    +0.083 A 
ATOM     28  C   UNL     1       2.922  -2.222   2.588  0.00  0.00    +0.028 A 
ATOM     29  C   UNL     1       2.276  -3.466   2.512  0.00  0.00    -0.029 A 
ATOM     30  C   UNL     1       0.941  -3.519   2.080  0.00  0.00    +0.009 A 
ATOM     31  C   UNL     1       0.259  -2.349   1.742  0.00  0.00    +0.047 A 
ATOM     32 CL   UNL     1       3.070   0.457   2.381  0.00  0.00    -0.080 Cl
BRANCH  26  34
ATOM     33  C   UNL     1       0.226   0.248   0.099  0.00  0.00    +0.277 C 
ATOM     34  O   UNL     1       0.208   0.018   1.508  0.00  0.00    -0.494 OA
ENDBRANCH  26  34
ENDBRANCH  25  29
ENDBRANCH   1  25
BRANCH  12  35
ATOM     35  C   UNL     1       7.918  -4.694  -0.540  0.00  0.00    +0.178 C 
BRANCH  35  36
ATOM     36  O   UNL     1       8.082  -3.643  -1.493  0.00  0.00    -0.393 OA
ATOM     37  H   UNL     1       8.965  -3.742  -1.885  0.00  0.00    +0.209 HD
ENDBRANCH  35  36
ENDBRANCH  12  35
TORSDOF 8
