REMARK  Name = =
REMARK  7 active torsions:
REMARK  status: ('A' for Active; 'I' for Inactive)
REMARK    1  A    between atoms: C_1  and  N_23
REMARK    2  A    between atoms: C_2  and  O_32
REMARK    3  A    between atoms: C_7  and  N_11
REMARK    4  A    between atoms: N_11  and  C_13
REMARK    5  A    between atoms: C_21  and  C_26
REMARK    6  A    between atoms: C_25  and  C_27
REMARK    7  A    between atoms: C_27  and  N_29
REMARK                            x       y       z     vdW  Elec       q    Type
REMARK                         _______ _______ _______ _____ _____    ______ ____
ROOT
ATOM      1  C   UNL     1      20.170  33.473  16.705  0.00  0.00    +0.077 C 
ATOM      2  C   UNL     1      21.512  33.726  16.723  0.00  0.00    +0.144 C 
ATOM      3  C   UNL     1      22.323  33.528  15.618  0.00  0.00    +0.076 C 
ATOM      4  C   UNL     1      21.775  33.178  14.402  0.00  0.00    +0.080 C 
ATOM      5  C   UNL     1      20.382  33.016  14.306  0.00  0.00    +0.042 C 
ATOM      6  C   UNL     1      19.590  33.095  15.491  0.00  0.00    +0.040 C 
ATOM      7  C   UNL     1      19.900  32.856  12.989  0.00  0.00    +0.134 C 
ATOM      8  N   UNL     1      20.739  32.742  11.941  0.00  0.00    -0.220 NA
ATOM      9  C   UNL     1      22.046  32.843  12.178  0.00  0.00    +0.223 C 
ATOM     10  N   UNL     1      22.604  33.080  13.366  0.00  0.00    -0.235 NA
ENDROOT
BRANCH   7  11
ATOM     11  N   UNL     1      18.508  32.900  12.735  0.00  0.00    -0.299 N 
ATOM     12  H   UNL     1      17.995  33.444  13.414  0.00  0.00    +0.154 HD
BRANCH  11  13
ATOM     13  C   UNL     1      17.843  32.802  11.493  0.00  0.00    +0.034 C 
ATOM     14  C   UNL     1      17.042  33.873  11.065  0.00  0.00    +0.046 C 
ATOM     15  C   UNL     1      16.446  33.856   9.801  0.00  0.00    +0.078 C 
ATOM     16  C   UNL     1      16.631  32.764   8.959  0.00  0.00    +0.142 C 
ATOM     17  C   UNL     1      17.401  31.685   9.373  0.00  0.00    +0.041 C 
ATOM     18  C   UNL     1      18.003  31.706  10.634  0.00  0.00    +0.026 C 
ATOM     19  F   UNL     1      16.080  32.736   7.738  0.00  0.00    -0.204 F 
ATOM     20 CL   UNL     1      15.506  35.208   9.295  0.00  0.00    -0.081 Cl
ENDBRANCH  11  13
ENDBRANCH   7  11
BRANCH   1  21
ATOM     21  N   UNL     1      19.314  33.733  17.909  0.00  0.00    -0.279 NA
ATOM     22  H   UNL     1      19.649  32.978  18.544  0.00  0.00    +0.155 HD
ENDBRANCH   1  21
BRANCH   2  23
ATOM     23  O   UNL     1      22.013  34.271  17.837  0.00  0.00    -0.485 OA
ATOM     24  C   UNL     1      22.977  33.338  18.322  0.00  0.00    +0.201 C 
ENDBRANCH   2  23
TORSDOF 4
REMARK  Name = =
REMARK  7 active torsions:
REMARK  status: ('A' for Active; 'I' for Inactive)
REMARK    1  A    between atoms: C_1  and  N_23
REMARK    2  A    between atoms: C_2  and  O_32
REMARK    3  A    between atoms: C_7  and  N_11
REMARK    4  A    between atoms: N_11  and  C_13
REMARK    5  A    between atoms: C_21  and  C_26
REMARK    6  A    between atoms: C_25  and  C_27
REMARK    7  A    between atoms: C_27  and  N_29
REMARK                            x       y       z     vdW  Elec       q    Type
REMARK                         _______ _______ _______ _____ _____    ______ ____
ROOT
ATOM      1  C   UNL     1      14.249  35.785  16.554  0.00  0.00    +0.159 C 
ENDROOT
BRANCH   1   3
ATOM      2  C   UNL     1      15.364  35.344  14.304  0.00  0.00    +0.190 C 
ATOM      3  N   UNL     1      14.078  35.501  15.076  0.00  0.00    +0.234 N 
ATOM      4  C   UNL     1      13.182  34.312  14.856  0.00  0.00    +0.190 C 
ATOM      5  H   UNL     1      13.593  36.315  14.675  0.00  0.00    +0.203 HD
ENDBRANCH   1   3
BRANCH   1   6
ATOM      6  C   UNL     1      15.666  35.640  17.005  0.00  0.00    +0.028 C 
ATOM      7  C   UNL     1      16.129  34.781  17.943  0.00  0.00    +0.068 C 
BRANCH   7   8
ATOM      8  C   UNL     1      17.637  34.412  18.661  0.00  0.00    +0.241 C 
ATOM      9  O   UNL     1      17.339  34.642  19.866  0.00  0.00    -0.271 OA
ENDBRANCH   7   8
ENDBRANCH   1   6
TORSDOF 3
REMARK  Name = =
REMARK  7 active torsions:
REMARK  status: ('A' for Active; 'I' for Inactive)
REMARK    1  A    between atoms: C_1  and  N_23
REMARK    2  A    between atoms: C_2  and  O_32
REMARK    3  A    between atoms: C_7  and  N_11
REMARK    4  A    between atoms: N_11  and  C_13
REMARK    5  A    between atoms: C_21  and  C_26
REMARK    6  A    between atoms: C_25  and  C_27
REMARK    7  A    between atoms: C_27  and  N_29
REMARK                            x       y       z     vdW  Elec       q    Type
REMARK                         _______ _______ _______ _____ _____    ______ ____
ROOT
ATOM      1  C   UNL     1      22.809  32.907  20.277  0.00  0.00    +0.075 C 
ENDROOT
TORSDOF 0
REMARK  Name = =
REMARK  7 active torsions:
REMARK  status: ('A' for Active; 'I' for Inactive)
REMARK    1  A    between atoms: C_1  and  N_23
REMARK    2  A    between atoms: C_2  and  O_32
REMARK    3  A    between atoms: C_7  and  N_11
REMARK    4  A    between atoms: N_11  and  C_13
REMARK    5  A    between atoms: C_21  and  C_26
REMARK    6  A    between atoms: C_25  and  C_27
REMARK    7  A    between atoms: C_27  and  N_29
REMARK                            x       y       z     vdW  Elec       q    Type
REMARK                         _______ _______ _______ _____ _____    ______ ____
ROOT
ATOM      1  C   UNL     1      24.592  33.167  21.141  0.00  0.00    +0.163 C 
ENDROOT
TORSDOF 0
REMARK  Name = =
REMARK  7 active torsions:
REMARK  status: ('A' for Active; 'I' for Inactive)
REMARK    1  A    between atoms: C_1  and  N_23
REMARK    2  A    between atoms: C_2  and  O_32
REMARK    3  A    between atoms: C_7  and  N_11
REMARK    4  A    between atoms: N_11  and  C_13
REMARK    5  A    between atoms: C_21  and  C_26
REMARK    6  A    between atoms: C_25  and  C_27
REMARK    7  A    between atoms: C_27  and  N_29
REMARK                            x       y       z     vdW  Elec       q    Type
REMARK                         _______ _______ _______ _____ _____    ______ ____
ROOT
ATOM      1  O   UNL     1      25.849  33.602  19.726  0.00  0.00    -0.376 OA
ENDROOT
TORSDOF 0
REMARK  Name = =
REMARK  7 active torsions:
REMARK  status: ('A' for Active; 'I' for Inactive)
REMARK    1  A    between atoms: C_1  and  N_23
REMARK    2  A    between atoms: C_2  and  O_32
REMARK    3  A    between atoms: C_7  and  N_11
REMARK    4  A    between atoms: N_11  and  C_13
REMARK    5  A    between atoms: C_21  and  C_26
REMARK    6  A    between atoms: C_25  and  C_27
REMARK    7  A    between atoms: C_27  and  N_29
REMARK                            x       y       z     vdW  Elec       q    Type
REMARK                         _______ _______ _______ _____ _____    ______ ____
ROOT
ATOM      1  C   UNL     1      24.969  33.791  17.996  0.00  0.00    +0.204 C 
ENDROOT
TORSDOF 0
