MODEL 1
REMARK minimizedAffinity -7.15482807
REMARK minimizedRMSD -1
REMARK  Name = 
REMARK  2 active torsions:
REMARK  status: ('A' for Active; 'I' for Inactive)
REMARK    1  A    between atoms: C_1  and  C_2
REMARK    2  A    between atoms: N_14  and  C_15
REMARK                            x       y       z     vdW  Elec       q    Type
REMARK                         _______ _______ _______ _____ _____    ______ ____
ROOT
ATOM      1  C   UNL     1      16.951  29.670   6.442  0.00  0.00    +0.067 C 
ATOM      2  C   UNL     1      16.631  30.891   7.241  0.00  0.00    +0.057 A 
ATOM      3  C   UNL     1      15.794  31.878   6.732  0.00  0.00    +0.134 A 
ATOM      4  N   UNL     1      15.469  33.004   7.412  0.00  0.00    -0.252 NA
ATOM      5  C   UNL     1      16.004  33.134   8.642  0.00  0.00    +0.091 A 
ATOM      6  C   UNL     1      15.725  34.256   9.411  0.00  0.00    +0.032 A 
ATOM      7  C   UNL     1      16.253  34.443  10.696  0.00  0.00    +0.030 A 
ATOM      8  C   UNL     1      17.091  33.439  11.192  0.00  0.00    +0.072 A 
ATOM      9  C   UNL     1      17.404  32.292  10.459  0.00  0.00    +0.118 A 
ATOM     10  C   UNL     1      16.854  32.132   9.163  0.00  0.00    +0.117 A 
ATOM     11  N   UNL     1      17.176  31.005   8.472  0.00  0.00    -0.247 NA
ATOM     12  N   UNL     1      18.247  31.476  11.189  0.00  0.00    -0.212 NA
ATOM     13  C   UNL     1      18.450  32.087  12.327  0.00  0.00    +0.194 A 
ATOM     14  N   UNL     1      17.773  33.282  12.378  0.00  0.00    -0.315 N 
ATOM     15  C   UNL     1      17.784  34.201  13.490  0.00  0.00    +0.152 C 
ATOM     16  N   UNL     1      19.213  31.636  13.327  0.00  0.00    -0.329 N 
ATOM     17  H   UNL     1      19.676  30.741  13.201  0.00  0.00    +0.145 HD
ATOM     18  H   UNL     1      19.373  32.102  14.208  0.00  0.00    +0.145 HD
ENDROOT
TORSDOF 0
ENDMDL
MODEL 2
REMARK minimizedAffinity -6.69579697
REMARK minimizedRMSD -1
REMARK  Name = 
REMARK  2 active torsions:
REMARK  status: ('A' for Active; 'I' for Inactive)
REMARK    1  A    between atoms: C_1  and  C_2
REMARK    2  A    between atoms: N_14  and  C_15
REMARK                            x       y       z     vdW  Elec       q    Type
REMARK                         _______ _______ _______ _____ _____    ______ ____
ROOT
ATOM      1  C   UNL     1      15.951  35.120  15.242  0.00  0.00    +0.067 C 
ATOM      2  C   UNL     1      16.525  34.230  14.187  0.00  0.00    +0.057 A 
ATOM      3  C   UNL     1      17.422  33.221  14.516  0.00  0.00    +0.134 A 
ATOM      4  N   UNL     1      17.972  32.384  13.602  0.00  0.00    -0.252 NA
ATOM      5  C   UNL     1      17.601  32.573  12.321  0.00  0.00    +0.091 A 
ATOM      6  C   UNL     1      18.114  31.762  11.317  0.00  0.00    +0.032 A 
ATOM      7  C   UNL     1      17.764  31.913   9.969  0.00  0.00    +0.030 A 
ATOM      8  C   UNL     1      16.858  32.933   9.657  0.00  0.00    +0.072 A 
ATOM      9  C   UNL     1      16.314  33.776  10.628  0.00  0.00    +0.118 A 
ATOM     10  C   UNL     1      16.688  33.597  11.983  0.00  0.00    +0.117 A 
ATOM     11  N   UNL     1      16.142  34.434  12.907  0.00  0.00    -0.247 NA
ATOM     12  N   UNL     1      15.454  34.686  10.041  0.00  0.00    -0.212 NA
ATOM     13  C   UNL     1      15.463  34.420   8.761  0.00  0.00    +0.194 A 
ATOM     14  N   UNL     1      16.298  33.368   8.476  0.00  0.00    -0.315 N 
ATOM     15  C   UNL     1      16.537  32.823   7.162  0.00  0.00    +0.152 C 
ATOM     16  N   UNL     1      14.762  35.071   7.828  0.00  0.00    -0.329 N 
ATOM     17  H   UNL     1      14.169  35.837   8.130  0.00  0.00    +0.145 HD
ATOM     18  H   UNL     1      14.763  34.870   6.838  0.00  0.00    +0.145 HD
ENDROOT
TORSDOF 0
ENDMDL
MODEL 3
REMARK minimizedAffinity -6.68069696
REMARK minimizedRMSD -1
REMARK  Name = 
REMARK  2 active torsions:
REMARK  status: ('A' for Active; 'I' for Inactive)
REMARK    1  A    between atoms: C_1  and  C_2
REMARK    2  A    between atoms: N_14  and  C_15
REMARK                            x       y       z     vdW  Elec       q    Type
REMARK                         _______ _______ _______ _____ _____    ______ ____
ROOT
ATOM      1  C   UNL     1      16.100  33.499   8.974  0.00  0.00    +0.067 C 
ATOM      2  C   UNL     1      16.458  33.577  10.423  0.00  0.00    +0.057 A 
ATOM      3  C   UNL     1      15.529  34.002  11.365  0.00  0.00    +0.134 A 
ATOM      4  N   UNL     1      15.798  34.090  12.691  0.00  0.00    -0.252 NA
ATOM      5  C   UNL     1      17.042  33.737  13.072  0.00  0.00    +0.091 A 
ATOM      6  C   UNL     1      17.406  33.796  14.411  0.00  0.00    +0.032 A 
ATOM      7  C   UNL     1      18.684  33.441  14.864  0.00  0.00    +0.030 A 
ATOM      8  C   UNL     1      19.605  33.014  13.901  0.00  0.00    +0.072 A 
ATOM      9  C   UNL     1      19.289  32.938  12.542  0.00  0.00    +0.118 A 
ATOM     10  C   UNL     1      17.988  33.304  12.116  0.00  0.00    +0.117 A 
ATOM     11  N   UNL     1      17.709  33.219  10.787  0.00  0.00    -0.247 NA
ATOM     12  N   UNL     1      20.381  32.488  11.825  0.00  0.00    -0.212 NA
ATOM     13  C   UNL     1      21.334  32.292  12.697  0.00  0.00    +0.194 A 
ATOM     14  N   UNL     1      20.916  32.597  13.970  0.00  0.00    -0.315 N 
ATOM     15  C   UNL     1      21.721  32.494  15.162  0.00  0.00    +0.152 C 
ATOM     16  N   UNL     1      22.566  31.855  12.419  0.00  0.00    -0.329 N 
ATOM     17  H   UNL     1      22.788  31.653  11.449  0.00  0.00    +0.145 HD
ATOM     18  H   UNL     1      23.306  31.700  13.088  0.00  0.00    +0.145 HD
ENDROOT
TORSDOF 0
ENDMDL
MODEL 4
REMARK minimizedAffinity -6.65157652
REMARK minimizedRMSD -1
REMARK  Name = 
REMARK  2 active torsions:
REMARK  status: ('A' for Active; 'I' for Inactive)
REMARK    1  A    between atoms: C_1  and  C_2
REMARK    2  A    between atoms: N_14  and  C_15
REMARK                            x       y       z     vdW  Elec       q    Type
REMARK                         _______ _______ _______ _____ _____    ______ ____
ROOT
ATOM      1  C   UNL     1      17.296  31.456   7.310  0.00  0.00    +0.067 C 
ATOM      2  C   UNL     1      16.959  31.837   8.715  0.00  0.00    +0.057 A 
ATOM      3  C   UNL     1      15.637  31.978   9.119  0.00  0.00    +0.134 A 
ATOM      4  N   UNL     1      15.274  32.320  10.379  0.00  0.00    -0.252 NA
ATOM      5  C   UNL     1      16.278  32.523  11.255  0.00  0.00    +0.091 A 
ATOM      6  C   UNL     1      15.999  32.876  12.569  0.00  0.00    +0.032 A 
ATOM      7  C   UNL     1      17.003  33.099  13.522  0.00  0.00    +0.030 A 
ATOM      8  C   UNL     1      18.328  32.950  13.098  0.00  0.00    +0.072 A 
ATOM      9  C   UNL     1      18.661  32.597  11.788  0.00  0.00    +0.118 A 
ATOM     10  C   UNL     1      17.624  32.379  10.848  0.00  0.00    +0.117 A 
ATOM     11  N   UNL     1      17.978  32.036   9.580  0.00  0.00    -0.247 NA
ATOM     12  N   UNL     1      20.035  32.522  11.651  0.00  0.00    -0.212 NA
ATOM     13  C   UNL     1      20.534  32.815  12.822  0.00  0.00    +0.194 A 
ATOM     14  N   UNL     1      19.542  33.083  13.734  0.00  0.00    -0.315 N 
ATOM     15  C   UNL     1      19.751  33.441  15.116  0.00  0.00    +0.152 C 
ATOM     16  N   UNL     1      21.835  32.857  13.125  0.00  0.00    -0.329 N 
ATOM     17  H   UNL     1      22.499  32.644  12.387  0.00  0.00    +0.145 HD
ATOM     18  H   UNL     1      22.227  33.082  14.028  0.00  0.00    +0.145 HD
ENDROOT
TORSDOF 0
ENDMDL
MODEL 5
REMARK minimizedAffinity -6.63443851
REMARK minimizedRMSD -1
REMARK  Name = 
REMARK  2 active torsions:
REMARK  status: ('A' for Active; 'I' for Inactive)
REMARK    1  A    between atoms: C_1  and  C_2
REMARK    2  A    between atoms: N_14  and  C_15
REMARK                            x       y       z     vdW  Elec       q    Type
REMARK                         _______ _______ _______ _____ _____    ______ ____
ROOT
ATOM      1  C   UNL     1      17.644  31.769  10.090  0.00  0.00    +0.067 C 
ATOM      2  C   UNL     1      16.917  32.439  11.211  0.00  0.00    +0.057 A 
ATOM      3  C   UNL     1      15.649  32.975  11.020  0.00  0.00    +0.134 A 
ATOM      4  N   UNL     1      14.944  33.591  11.999  0.00  0.00    -0.252 NA
ATOM      5  C   UNL     1      15.538  33.664  13.207  0.00  0.00    +0.091 A 
ATOM      6  C   UNL     1      14.888  34.278  14.269  0.00  0.00    +0.032 A 
ATOM      7  C   UNL     1      15.458  34.383  15.546  0.00  0.00    +0.030 A 
ATOM      8  C   UNL     1      16.734  33.836  15.720  0.00  0.00    +0.072 A 
ATOM      9  C   UNL     1      17.430  33.209  14.684  0.00  0.00    +0.118 A 
ATOM     10  C   UNL     1      16.826  33.119  13.405  0.00  0.00    +0.117 A 
ATOM     11  N   UNL     1      17.528  32.503  12.415  0.00  0.00    -0.247 NA
ATOM     12  N   UNL     1      18.658  32.765  15.136  0.00  0.00    -0.212 NA
ATOM     13  C   UNL     1      18.724  33.100  16.398  0.00  0.00    +0.194 A 
ATOM     14  N   UNL     1      17.584  33.753  16.800  0.00  0.00    -0.315 N 
ATOM     15  C   UNL     1      17.334  34.257  18.129  0.00  0.00    +0.152 C 
ATOM     16  N   UNL     1      19.753  32.856  17.214  0.00  0.00    -0.329 N 
ATOM     17  H   UNL     1      20.556  32.367  16.830  0.00  0.00    +0.145 HD
ATOM     18  H   UNL     1      19.810  33.111  18.190  0.00  0.00    +0.145 HD
ENDROOT
TORSDOF 0
ENDMDL
