REMARK  Name = =
REMARK  2 active torsions:
REMARK  status: ('A' for Active; 'I' for Inactive)
REMARK    1  A    between atoms: N_15  and  C_18
REMARK    2  A    between atoms: C_18  and  C_19
REMARK                            x       y       z     vdW  Elec       q    Type
REMARK                         _______ _______ _______ _____ _____    ______ ____
ROOT
ATOM      1  C   UNL     1      20.177  34.106  18.147  0.00  0.00    +0.148 C 
ATOM      2  C   UNL     1      19.696  33.466  16.835  0.00  0.00    +0.159 C 
ATOM      3  N   UNL     1      19.985  34.351  15.684  0.00  0.00    -0.291 N 
ATOM      4  C   UNL     1      21.404  34.746  15.560  0.00  0.00    +0.159 C 
ATOM      5  C   UNL     1      21.908  35.386  16.865  0.00  0.00    +0.148 C 
ATOM      6  N   UNL     1      21.638  34.474  18.037  0.00  0.00    +0.229 N 
ATOM      7  C   UNL     1      19.423  33.935  14.517  0.00  0.00    +0.200 A 
ATOM      8  N   UNL     1      19.940  33.059  13.692  0.00  0.00    -0.214 NA
ATOM      9  C   UNL     1      19.017  32.910  12.688  0.00  0.00    +0.091 A 
ATOM     10  C   UNL     1      19.059  32.080  11.558  0.00  0.00    +0.030 C 
ATOM     11  C   UNL     1      17.983  32.104  10.662  0.00  0.00    +0.002 C 
ATOM     12  C   UNL     1      16.888  32.938  10.888  0.00  0.00    +0.002 C 
ATOM     13  C   UNL     1      16.829  33.775  12.009  0.00  0.00    +0.028 C 
ATOM     14  C   UNL     1      17.913  33.734  12.894  0.00  0.00    +0.070 A 
ATOM     15  N   UNL     1      18.205  34.396  14.068  0.00  0.00    -0.307 N 
ATOM     16  H   UNL     1      21.951  34.921  18.908  0.00  0.00    +0.201 HD
ATOM     17  H   UNL     1      22.192  33.613  17.926  0.00  0.00    +0.201 HD
ENDROOT
BRANCH  15  18
ATOM     18  C   UNL     1      17.425  35.480  14.648  0.00  0.00    +0.160 C 
BRANCH  18  19
ATOM     19  C   UNL     1      16.144  35.013  15.297  0.00  0.00    -0.028 C 
ATOM     20  C   UNL     1      14.921  35.181  14.628  0.00  0.00    +0.005 C 
ATOM     21  C   UNL     1      13.728  34.737  15.202  0.00  0.00    +0.000 C 
ATOM     22  C   UNL     1      13.744  34.110  16.446  0.00  0.00    +0.000 C 
ATOM     23  C   UNL     1      14.953  33.917  17.112  0.00  0.00    +0.000 C 
ATOM     24  C   UNL     1      16.148  34.356  16.538  0.00  0.00    +0.005 C 
ENDBRANCH  18  19
ENDBRANCH  15  18
TORSDOF 2
