REMARK  Name = 
REMARK  8 active torsions:
REMARK  status: ('A' for Active; 'I' for Inactive)
REMARK    1  A    between atoms: C_1  and  O_2
REMARK    2  A    between atoms: O_2  and  C_3
REMARK    3  A    between atoms: C_4  and  O_22
REMARK    4  A    between atoms: N_13  and  C_14
REMARK    5  A    between atoms: O_22  and  C_23
REMARK    6  A    between atoms: C_23  and  C_24
REMARK    7  A    between atoms: C_24  and  C_25
REMARK    8  A    between atoms: C_25  and  N_26
REMARK                            x       y       z     vdW  Elec       q    Type
REMARK                         _______ _______ _______ _____ _____    ______ ____
ROOT
ATOM      1  C   UNL     1       2.333  -2.553   2.156  0.00  0.00    +0.164 A 
ATOM      2  C   UNL     1       2.787  -2.905   0.888  0.00  0.00    +0.163 A 
ATOM      3  C   UNL     1       3.076  -4.249   0.637  0.00  0.00    +0.062 A 
ATOM      4  C   UNL     1       2.846  -5.253   1.615  0.00  0.00    +0.044 A 
ATOM      5  C   UNL     1       2.303  -4.885   2.852  0.00  0.00    +0.080 A 
ATOM      6  C   UNL     1       2.063  -3.544   3.106  0.00  0.00    +0.078 A 
ATOM      7  N   UNL     1       2.006  -5.767   3.807  0.00  0.00    -0.235 NA
ATOM      8  C   UNL     1       2.256  -7.051   3.536  0.00  0.00    +0.223 A 
ATOM      9  N   UNL     1       2.781  -7.525   2.404  0.00  0.00    -0.220 NA
ATOM     10  C   UNL     1       3.099  -6.630   1.451  0.00  0.00    +0.134 A 
ATOM     11  N   UNL     1       3.704  -7.090   0.259  0.00  0.00    -0.299 N 
ATOM     12  H   UNL     1       4.476  -6.502  -0.028  0.00  0.00    +0.154 HD
ENDROOT
BRANCH  11  13
ATOM     13  C   UNL     1       3.728  -8.382  -0.302  0.00  0.00    +0.034 A 
ATOM     14  C   UNL     1       4.743  -8.709  -1.217  0.00  0.00    +0.046 A 
ATOM     15  C   UNL     1       4.794  -9.977  -1.805  0.00  0.00    +0.078 A 
ATOM     16  C   UNL     1       3.825 -10.925  -1.497  0.00  0.00    +0.142 A 
ATOM     17  C   UNL     1       2.802 -10.617  -0.610  0.00  0.00    +0.041 A 
ATOM     18  C   UNL     1       2.754  -9.350  -0.020  0.00  0.00    +0.026 A 
ATOM     19  F   UNL     1       3.854 -12.145  -2.053  0.00  0.00    -0.204 F 
ATOM     20 CL   UNL     1       6.063 -10.342  -2.910  0.00  0.00    -0.081 Cl
ENDBRANCH  11  13
BRANCH   1  22
ATOM     21  C   UNL     1       3.204  -0.745   3.259  0.00  0.00    +0.277 C 
ATOM     22  O   UNL     1       2.093  -1.251   2.506  0.00  0.00    -0.491 OA
ENDBRANCH   1  22
BRANCH   2  23
ATOM     23  O   UNL     1       3.015  -2.071  -0.170  0.00  0.00    -0.488 OA
BRANCH  23  24
ATOM     24  C   UNL     1       2.133  -0.961  -0.359  0.00  0.00    +0.234 C 
BRANCH  24  25
ATOM     25  C   UNL     1       0.696  -1.406  -0.635  0.00  0.00    +0.092 C 
BRANCH  25  26
ATOM     26  C   UNL     1      -0.295  -0.266  -0.841  0.00  0.00    +0.134 C 
BRANCH  26  27
ATOM     27  N   UNL     1      -0.901   0.321   0.412  0.00  0.00    +0.239 N 
ATOM     28  C   UNL     1      -1.483  -0.689   1.401  0.00  0.00    +0.160 C 
ATOM     29  C   UNL     1      -2.257   0.065   2.491  0.00  0.00    +0.210 C 
ATOM     30  O   UNL     1      -1.418   1.016   3.157  0.00  0.00    -0.369 OA
ATOM     31  C   UNL     1      -0.888   1.996   2.256  0.00  0.00    +0.210 C 
ATOM     32  C   UNL     1      -0.044   1.335   1.157  0.00  0.00    +0.160 C 
ATOM     33  H   UNL     1      -1.709   0.859   0.073  0.00  0.00    +0.203 HD
ENDBRANCH  26  27
ENDBRANCH  25  26
ENDBRANCH  24  25
ENDBRANCH  23  24
ENDBRANCH   2  23
TORSDOF 7
