REMARK  Name = =
REMARK  0 active torsions:
REMARK  status: ('A' for Active; 'I' for Inactive)
REMARK                            x       y       z     vdW  Elec       q    Type
REMARK                         _______ _______ _______ _____ _____    ______ ____
ROOT
ATOM      1  C   UNL     1      17.644  31.769  10.090  0.00  0.00    +0.067 C 
ATOM      2  C   UNL     1      16.917  32.439  11.211  0.00  0.00    +0.057 C 
ATOM      3  C   UNL     1      15.649  32.975  11.020  0.00  0.00    +0.134 C 
ATOM      4  N   UNL     1      14.944  33.591  11.999  0.00  0.00    -0.252 NA
ATOM      5  C   UNL     1      15.538  33.664  13.207  0.00  0.00    +0.091 C 
ATOM      6  C   UNL     1      14.888  34.278  14.269  0.00  0.00    +0.032 C 
ATOM      7  C   UNL     1      15.458  34.383  15.546  0.00  0.00    +0.030 C 
ATOM      8  C   UNL     1      16.734  33.836  15.720  0.00  0.00    +0.072 A 
ATOM      9  C   UNL     1      17.430  33.209  14.684  0.00  0.00    +0.118 A 
ATOM     10  C   UNL     1      16.826  33.119  13.405  0.00  0.00    +0.117 C 
ATOM     11  N   UNL     1      17.528  32.503  12.415  0.00  0.00    -0.247 NA
ATOM     12  N   UNL     1      18.658  32.765  15.136  0.00  0.00    -0.212 NA
ATOM     13  C   UNL     1      18.724  33.100  16.398  0.00  0.00    +0.194 A 
ATOM     14  N   UNL     1      17.584  33.753  16.800  0.00  0.00    -0.315 N 
ATOM     15  C   UNL     1      17.334  34.257  18.129  0.00  0.00    +0.152 C 
ATOM     16  N   UNL     1      19.753  32.856  17.214  0.00  0.00    -0.329 N 
ATOM     17  H   UNL     1      20.556  32.367  16.830  0.00  0.00    +0.145 HD
ATOM     18  H   UNL     1      19.810  33.111  18.190  0.00  0.00    +0.145 HD
ENDROOT
TORSDOF 0
