REMARK  Name = 
REMARK  7 active torsions:
REMARK  status: ('A' for Active; 'I' for Inactive)
REMARK    1  A    between atoms: C_1  and  C_2
REMARK    2  A    between atoms: N_4  and  C_32
REMARK    3  A    between atoms: C_8  and  O_10
REMARK    4  A    between atoms: O_10  and  C_11
REMARK    5  A    between atoms: C_12  and  O_30
REMARK    6  A    between atoms: N_21  and  C_22
REMARK    7  A    between atoms: O_30  and  C_31
REMARK                            x       y       z     vdW  Elec       q    Type
REMARK                         _______ _______ _______ _____ _____    ______ ____
ROOT
ATOM      1  C   UNL     1      -1.373   4.668  -0.268  0.00  0.00    +0.175 A 
ATOM      2  C   UNL     1      -1.724   4.756   1.080  0.00  0.00    +0.164 A 
ATOM      3  C   UNL     1      -2.275   5.954   1.539  0.00  0.00    +0.078 A 
ATOM      4  C   UNL     1      -2.462   7.050   0.700  0.00  0.00    +0.080 A 
ATOM      5  C   UNL     1      -2.096   6.950  -0.652  0.00  0.00    +0.044 A 
ATOM      6  C   UNL     1      -1.534   5.746  -1.132  0.00  0.00    +0.063 A 
ATOM      7  C   UNL     1      -2.304   8.108  -1.423  0.00  0.00    +0.134 A 
ATOM      8  N   UNL     1      -2.809   9.237  -0.896  0.00  0.00    -0.220 NA
ATOM      9  C   UNL     1      -3.111   9.212   0.403  0.00  0.00    +0.223 A 
ATOM     10  N   UNL     1      -2.972   8.165   1.225  0.00  0.00    -0.235 NA
ATOM     11  N   UNL     1      -1.998   8.098  -2.800  0.00  0.00    -0.297 N 
ATOM     12  H   UNL     1      -2.444   7.339  -3.295  0.00  0.00    +0.154 HD
ENDROOT
BRANCH  11  13
ATOM     13  C   UNL     1      -1.563   9.180  -3.591  0.00  0.00    +0.070 A 
ATOM     14  C   UNL     1      -0.737  10.204  -3.094  0.00  0.00    +0.163 A 
ATOM     15  C   UNL     1      -0.347  11.270  -3.907  0.00  0.00    +0.078 A 
ATOM     16  C   UNL     1      -0.774  11.334  -5.232  0.00  0.00    +0.023 A 
ATOM     17  C   UNL     1      -1.589  10.325  -5.744  0.00  0.00    +0.003 A 
ATOM     18  C   UNL     1      -1.977   9.257  -4.930  0.00  0.00    +0.026 A 
ATOM     19 CL   UNL     1       0.685  12.508  -3.296  0.00  0.00    -0.081 Cl
ATOM     20  F   UNL     1      -0.258  10.128  -1.840  0.00  0.00    -0.202 F 
ENDBRANCH  11  13
BRANCH   2  21
ATOM     21  O   UNL     1      -1.479   3.644   1.843  0.00  0.00    -0.491 OA
ATOM     22  C   UNL     1      -1.797   3.734   3.228  0.00  0.00    +0.277 C 
ENDBRANCH   2  21
BRANCH   1  23
ATOM     23  O   UNL     1      -0.765   3.508  -0.756  0.00  0.00    -0.408 OA
BRANCH  23  31
ATOM     24  C   UNL     1       0.673   0.703   0.327  0.00  0.00    +0.033 C 
ATOM     25  C   UNL     1       0.372   1.061  -1.130  0.00  0.00    +0.122 C 
ATOM     26  C   UNL     1       0.952   0.044  -2.143  0.00  0.00    +0.153 C 
ATOM     27  N   UNL     1       0.078  -1.181  -2.369  0.00  0.00    +0.235 N 
ATOM     28  C   UNL     1      -1.366  -0.795  -2.654  0.00  0.00    +0.150 C 
ATOM     29  C   UNL     1      -1.924   0.127  -1.567  0.00  0.00    +0.162 C 
ATOM     30  N   UNL     1      -1.070   1.291  -1.331  0.00  0.00    -0.254 N 
ATOM     31  C   UNL     1      -1.680   2.521  -1.088  0.00  0.00    +0.409 C 
ATOM     32  O   UNL     1      -2.890   2.687  -1.195  0.00  0.00    -0.226 OA
ATOM     33  C   UNL     1       0.222  -2.265  -1.343  0.00  0.00    +0.190 C 
ATOM     34  H   UNL     1       0.426  -1.600  -3.242  0.00  0.00    +0.203 HD
ENDBRANCH  23  31
ENDBRANCH   1  23
TORSDOF 4
