REMARK  Name = =
REMARK  0 active torsions:
REMARK  status: ('A' for Active; 'I' for Inactive)
REMARK                            x       y       z     vdW  Elec       q    Type
REMARK                         _______ _______ _______ _____ _____    ______ ____
ROOT
ATOM      1  C   UNL     1      18.374  32.655  10.960  0.00  0.00    +0.152 C 
ATOM      2  N   UNL     1      17.196  33.002  11.716  0.00  0.00    -0.315 N 
ATOM      3  C   UNL     1      17.165  33.678  12.913  0.00  0.00    +0.070 A 
ATOM      4  C   UNL     1      15.809  33.761  13.221  0.00  0.00    +0.100 A 
ATOM      5  C   UNL     1      15.411  34.413  14.415  0.00  0.00    +0.028 C 
ATOM      6  C   UNL     1      16.384  34.963  15.273  0.00  0.00    +0.073 C 
ATOM      7  C   UNL     1      17.722  34.852  14.919  0.00  0.00    +0.030 C 
ATOM      8  C   UNL     1      18.153  34.214  13.745  0.00  0.00    +0.030 C 
ATOM      9  N   UNL     1      16.043  35.588  16.415  0.00  0.00    -0.255 NA
ATOM     10  C   UNL     1      14.726  35.675  16.722  0.00  0.00    +0.111 C 
ATOM     11  C   UNL     1      13.707  35.163  15.939  0.00  0.00    +0.020 C 
ATOM     12  C   UNL     1      14.054  34.518  14.761  0.00  0.00    +0.013 C 
ATOM     13  N   UNL     1      15.050  33.155  12.244  0.00  0.00    -0.214 NA
ATOM     14  C   UNL     1      15.902  32.709  11.358  0.00  0.00    +0.194 A 
ATOM     15  N   UNL     1      15.587  32.047  10.240  0.00  0.00    -0.329 N 
ATOM     16  H   UNL     1      14.606  31.870  10.048  0.00  0.00    +0.145 HD
ATOM     17  H   UNL     1      16.243  31.698   9.555  0.00  0.00    +0.145 HD
ENDROOT
TORSDOF 0
