REMARK  Name = 
REMARK  9 active torsions:
REMARK  status: ('A' for Active; 'I' for Inactive)
REMARK    1  A    between atoms: C_1  and  N_2
REMARK    2  A    between atoms: N_2  and  C_3
REMARK    3  A    between atoms: N_2  and  C_4
REMARK    4  A    between atoms: C_4  and  C_5
REMARK    5  A    between atoms: C_6  and  C_7
REMARK    6  A    between atoms: N_9  and  C_10
REMARK    7  A    between atoms: C_11  and  O_29
REMARK    8  A    between atoms: N_20  and  C_21
REMARK    9  A    between atoms: O_29  and  C_30
REMARK                            x       y       z     vdW  Elec       q    Type
REMARK                         _______ _______ _______ _____ _____    ______ ____
ROOT
ATOM      1  C   UNL     1      -0.827   2.530  -2.336  0.00  0.00    +0.077 A 
ATOM      2  C   UNL     1       0.408   2.166  -1.880  0.00  0.00    +0.144 A 
ATOM      3  C   UNL     1       1.320   3.083  -1.385  0.00  0.00    +0.076 A 
ATOM      4  C   UNL     1       0.962   4.405  -1.218  0.00  0.00    +0.080 A 
ATOM      5  C   UNL     1      -0.339   4.806  -1.568  0.00  0.00    +0.042 A 
ATOM      6  C   UNL     1      -1.209   3.867  -2.200  0.00  0.00    +0.040 A 
ATOM      7  C   UNL     1      -0.671   6.121  -1.177  0.00  0.00    +0.134 A 
ATOM      8  N   UNL     1       0.243   6.946  -0.631  0.00  0.00    -0.220 NA
ATOM      9  C   UNL     1       1.466   6.462  -0.416  0.00  0.00    +0.223 A 
ATOM     10  N   UNL     1       1.862   5.214  -0.665  0.00  0.00    -0.235 NA
ATOM     11  N   UNL     1      -2.010   6.570  -1.275  0.00  0.00    -0.299 N 
ATOM     12  H   UNL     1      -2.688   5.824  -1.217  0.00  0.00    +0.154 HD
ENDROOT
BRANCH  11  13
ATOM     13  C   UNL     1      -2.540   7.824  -0.899  0.00  0.00    +0.034 A 
ATOM     14  C   UNL     1      -3.803   7.872  -0.287  0.00  0.00    +0.046 A 
ATOM     15  C   UNL     1      -4.320   9.081   0.187  0.00  0.00    +0.078 A 
ATOM     16  C   UNL     1      -3.588  10.255   0.040  0.00  0.00    +0.142 A 
ATOM     17  C   UNL     1      -2.347  10.233  -0.583  0.00  0.00    +0.041 A 
ATOM     18  C   UNL     1      -1.828   9.022  -1.050  0.00  0.00    +0.026 A 
ATOM     19  F   UNL     1      -4.060  11.422   0.501  0.00  0.00    -0.204 F 
ATOM     20 CL   UNL     1      -5.853   9.092   0.971  0.00  0.00    -0.081 Cl
ENDBRANCH  11  13
BRANCH   1  23
ATOM     21  C   UNL     1      -2.331  -0.375  -2.988  0.00  0.00    +0.241 C 
ATOM     22  O   UNL     1      -3.226  -0.895  -3.712  0.00  0.00    -0.271 OA
ATOM     23  N   UNL     1      -1.805   1.506  -2.832  0.00  0.00    -0.279 N 
ATOM     24  H   UNL     1      -2.682   2.069  -2.832  0.00  0.00    +0.155 HD
BRANCH  21  26
ATOM     25  C   UNL     1      -1.450  -2.099  -0.894  0.00  0.00    +0.028 C 
ATOM     26  C   UNL     1      -1.818  -1.778  -2.157  0.00  0.00    +0.068 C 
BRANCH  25  27
ATOM     27  C   UNL     1      -1.010  -3.442  -0.410  0.00  0.00    +0.159 C 
BRANCH  27  29
ATOM     28  C   UNL     1       0.930  -2.409   0.882  0.00  0.00    +0.190 C 
ATOM     29  N   UNL     1       0.466  -3.482  -0.070  0.00  0.00    +0.234 N 
ATOM     30  C   UNL     1       0.867  -4.843   0.433  0.00  0.00    +0.190 C 
ATOM     31  H   UNL     1       0.974  -3.331  -0.952  0.00  0.00    +0.203 HD
ENDBRANCH  27  29
ENDBRANCH  25  27
ENDBRANCH  21  26
ENDBRANCH   1  23
BRANCH   2  32
ATOM     32  O   UNL     1       0.679   0.857  -1.839  0.00  0.00    -0.485 OA
BRANCH  32  33
ATOM     33  C   UNL     1      -0.507   0.205  -2.291  0.00  0.00    +0.201 C 
ATOM     34  C   UNL     1      -0.916   0.476  -4.239  0.00  0.00    +0.075 C 
ATOM     35  C   UNL     1      -2.801   1.117  -4.411  0.00  0.00    +0.163 C 
ATOM     36  O   UNL     1      -3.570   1.097  -2.628  0.00  0.00    -0.376 OA
ATOM     37  C   UNL     1      -2.256   0.622  -1.267  0.00  0.00    +0.204 C 
ENDBRANCH  32  33
ENDBRANCH   2  32
TORSDOF 7
