REMARK  Name = =
REMARK  0 active torsions:
REMARK  status: ('A' for Active; 'I' for Inactive)
REMARK                            x       y       z     vdW  Elec       q    Type
REMARK                         _______ _______ _______ _____ _____    ______ ____
ROOT
ATOM      1  C   UNL     1      13.574  29.597   7.097  0.00  0.00    +0.001 C 
ATOM      2  C   UNL     1      13.845  28.454   6.358  0.00  0.00    +0.002 C 
ATOM      3  C   UNL     1      15.135  28.235   5.865  0.00  0.00    +0.028 C 
ATOM      4  C   UNL     1      16.171  29.133   6.088  0.00  0.00    +0.076 C 
ATOM      5  C   UNL     1      15.902  30.293   6.828  0.00  0.00    +0.040 C 
ATOM      6  C   UNL     1      14.596  30.515   7.336  0.00  0.00    +0.013 C 
ATOM      7  C   UNL     1      16.994  31.153   7.007  0.00  0.00    +0.127 C 
ATOM      8  N   UNL     1      18.220  30.886   6.542  0.00  0.00    -0.221 NA
ATOM      9  C   UNL     1      18.351  29.747   5.852  0.00  0.00    +0.223 C 
ATOM     10  N   UNL     1      17.383  28.859   5.595  0.00  0.00    -0.235 NA
ATOM     11  N   UNL     1      16.893  32.336   7.727  0.00  0.00    -0.343 N 
ATOM     12  H   UNL     1      16.086  32.914   7.548  0.00  0.00    +0.144 HD
ATOM     13  H   UNL     1      17.785  32.816   7.778  0.00  0.00    +0.144 HD
ENDROOT
TORSDOF 0
