REMARK  Name = =
REMARK  8 active torsions:
REMARK  status: ('A' for Active; 'I' for Inactive)
REMARK    1  A    between atoms: C_1  and  O_22
REMARK    2  A    between atoms: C_2  and  O_23
REMARK    3  A    between atoms: C_10  and  N_11
REMARK    4  A    between atoms: N_11  and  C_13
REMARK    5  A    between atoms: O_23  and  C_24
REMARK    6  A    between atoms: C_24  and  C_25
REMARK    7  A    between atoms: C_25  and  C_26
REMARK    8  A    between atoms: C_26  and  N_27
REMARK                            x       y       z     vdW  Elec       q    Type
REMARK                         _______ _______ _______ _____ _____    ______ ____
ROOT
ATOM      1  C   UNL     1      20.532  33.078  16.975  0.00  0.00    +0.164 C 
ATOM      2  C   UNL     1      19.188  33.215  16.639  0.00  0.00    +0.163 C 
ATOM      3  C   UNL     1      18.844  33.250  15.285  0.00  0.00    +0.062 C 
ATOM      4  C   UNL     1      19.819  33.076  14.266  0.00  0.00    +0.044 C 
ATOM      5  C   UNL     1      21.151  32.849  14.633  0.00  0.00    +0.080 C 
ATOM      6  C   UNL     1      21.488  32.861  15.977  0.00  0.00    +0.078 C 
ATOM      7  N   UNL     1      22.120  32.623  13.745  0.00  0.00    -0.235 NA
ATOM      8  C   UNL     1      21.767  32.625  12.457  0.00  0.00    +0.223 C 
ATOM      9  N   UNL     1      20.538  32.841  11.982  0.00  0.00    -0.220 NA
ATOM     10  C   UNL     1      19.566  33.089  12.880  0.00  0.00    +0.134 C 
ENDROOT
BRANCH  10  11
ATOM     11  N   UNL     1      18.263  33.372  12.411  0.00  0.00    -0.299 N 
ATOM     12  H   UNL     1      17.841  34.149  12.904  0.00  0.00    +0.154 HD
BRANCH  11  13
ATOM     13  C   UNL     1      17.672  33.097  11.163  0.00  0.00    +0.034 C 
ATOM     14  C   UNL     1      16.830  34.059  10.580  0.00  0.00    +0.046 C 
ATOM     15  C   UNL     1      16.214  33.818   9.347  0.00  0.00    +0.078 C 
ATOM     16  C   UNL     1      16.421  32.609   8.692  0.00  0.00    +0.142 C 
ATOM     17  C   UNL     1      17.234  31.637   9.259  0.00  0.00    +0.041 C 
ATOM     18  C   UNL     1      17.851  31.880  10.490  0.00  0.00    +0.026 C 
ATOM     19  F   UNL     1      15.837  32.358   7.512  0.00  0.00    -0.204 F 
ATOM     20 CL   UNL     1      15.202  35.030   8.661  0.00  0.00    -0.081 Cl
ENDBRANCH  11  13
ENDBRANCH  10  11
BRANCH   1  22
ATOM     21  C   UNL     1      21.917  34.160  18.443  0.00  0.00    +0.277 C 
ATOM     22  O   UNL     1      20.961  33.104  18.275  0.00  0.00    -0.491 OA
ENDBRANCH   1  22
BRANCH   2  23
ATOM     23  O   UNL     1      18.130  33.347  17.494  0.00  0.00    -0.488 OA
BRANCH  23  24
ATOM     24  C   UNL     1      18.080  34.502  18.335  0.00  0.00    +0.234 C 
BRANCH  24  25
ATOM     25  C   UNL     1      18.242  35.801  17.543  0.00  0.00    +0.092 C 
BRANCH  25  26
ATOM     26  C   UNL     1      16.944  36.372  16.984  0.00  0.00    +0.134 C 
BRANCH  26  27
ATOM     27  N   UNL     1      16.048  35.396  16.259  0.00  0.00    +0.239 N 
ATOM     28  C   UNL     1      14.601  35.336  16.748  0.00  0.00    +0.160 C 
ATOM     29  C   UNL     1      13.893  34.150  16.079  0.00  0.00    +0.210 C 
ATOM     30  O   UNL     1      13.952  34.251  14.652  0.00  0.00    -0.369 OA
ATOM     31  C   UNL     1      15.299  34.273  14.165  0.00  0.00    +0.210 C 
ATOM     32  C   UNL     1      16.074  35.468  14.738  0.00  0.00    +0.160 C 
ATOM     33  H   UNL     1      16.444  34.474  16.484  0.00  0.00    +0.203 HD
ENDBRANCH  26  27
ENDBRANCH  25  26
ENDBRANCH  24  25
ENDBRANCH  23  24
ENDBRANCH   2  23
TORSDOF 8
