MODEL 1
REMARK minimizedAffinity -8.17708874
REMARK minimizedRMSD -1
REMARK  Name = 
REMARK  8 active torsions:
REMARK  status: ('A' for Active; 'I' for Inactive)
REMARK    1  A    between atoms: C_3  and  N_11
REMARK    2  A    between atoms: N_11  and  C_12
REMARK    3  A    between atoms: N_11  and  C_17
REMARK    4  A    between atoms: C_12  and  C_13
REMARK    5  A    between atoms: C_13  and  C_14
REMARK    6  A    between atoms: C_14  and  C_15
REMARK    7  A    between atoms: C_15  and  N_16
REMARK    8  A    between atoms: C_17  and  C_18
REMARK                            x       y       z     vdW  Elec       q    Type
REMARK                         _______ _______ _______ _____ _____    ______ ____
ROOT
ATOM      1  N   UNL     1      16.955  33.746  13.832  0.00  0.00    +0.247 N 
ATOM      2  H   UNL     1      17.581  33.859  13.014  0.00  0.00    +0.204 HD
ENDROOT
BRANCH   1   5
ATOM      3  C   UNL     1      14.851  34.781  15.973  0.00  0.00    +0.011 C 
ATOM      4  C   UNL     1      15.138  35.364  14.592  0.00  0.00    +0.061 C 
ATOM      5  C   UNL     1      16.623  35.206  14.210  0.00  0.00    +0.115 C 
ATOM      6  C   UNL     1      17.511  35.749  15.336  0.00  0.00    +0.092 A 
ATOM      7  C   UNL     1      17.042  35.857  16.650  0.00  0.00    -0.021 A 
ATOM      8  C   UNL     1      15.623  35.545  17.045  0.00  0.00    +0.037 C 
ATOM      9  C   UNL     1      17.916  36.367  17.617  0.00  0.00    +0.007 A 
ATOM     10  C   UNL     1      19.204  36.748  17.263  0.00  0.00    +0.020 A 
ATOM     11  C   UNL     1      19.588  36.596  15.947  0.00  0.00    +0.111 A 
ATOM     12  N   UNL     1      18.785  36.078  14.986  0.00  0.00    -0.254 NA
ENDBRANCH   1   5
BRANCH   1  13
ATOM     13  C   UNL     1      17.779  32.893  14.755  0.00  0.00    +0.132 C 
BRANCH  13  14
ATOM     14  C   UNL     1      18.997  32.212  14.108  0.00  0.00    +0.056 C 
BRANCH  14  15
ATOM     15  C   UNL     1      19.709  32.972  12.975  0.00  0.00    +0.056 C 
BRANCH  15  16
ATOM     16  C   UNL     1      21.237  33.043  13.077  0.00  0.00    +0.127 C 
BRANCH  16  17
ATOM     17  N   UNL     1      21.870  31.850  12.465  0.00  0.00    +0.219 N 
ATOM     18  H   UNL     1      21.628  31.749  11.467  0.00  0.00    +0.199 HD
ATOM     19  H   UNL     1      22.899  31.932  12.489  0.00  0.00    +0.199 HD
ATOM     20  H   UNL     1      21.642  30.960  12.928  0.00  0.00    +0.199 HD
ENDBRANCH  16  17
ENDBRANCH  15  16
ENDBRANCH  14  15
ENDBRANCH  13  14
ENDBRANCH   1  13
BRANCH   1  21
ATOM     21  C   UNL     1      15.789  33.011  13.169  0.00  0.00    +0.207 C 
BRANCH  21  22
ATOM     22  C   UNL     1      16.035  32.947  11.707  0.00  0.00    +0.154 A 
ATOM     23  N   UNL     1      15.482  33.778  10.846  0.00  0.00    -0.227 NA
ATOM     24  C   UNL     1      15.930  33.369   9.611  0.00  0.00    +0.089 A 
ATOM     25  C   UNL     1      15.696  33.919   8.344  0.00  0.00    +0.030 A 
ATOM     26  C   UNL     1      16.265  33.291   7.229  0.00  0.00    +0.002 A 
ATOM     27  C   UNL     1      17.042  32.140   7.373  0.00  0.00    +0.002 A 
ATOM     28  C   UNL     1      17.287  31.578   8.631  0.00  0.00    +0.028 A 
ATOM     29  C   UNL     1      16.720  32.229   9.728  0.00  0.00    +0.066 A 
ATOM     30  N   UNL     1      16.763  31.971  11.075  0.00  0.00    -0.338 N 
ATOM     31  H   UNL     1      17.230  31.182  11.505  0.00  0.00    +0.167 HD
ENDBRANCH  21  22
ENDBRANCH   1  21
TORSDOF 8
ENDMDL
MODEL 2
REMARK minimizedAffinity -8.16668797
REMARK minimizedRMSD -1
REMARK  Name = 
REMARK  8 active torsions:
REMARK  status: ('A' for Active; 'I' for Inactive)
REMARK    1  A    between atoms: C_3  and  N_11
REMARK    2  A    between atoms: N_11  and  C_12
REMARK    3  A    between atoms: N_11  and  C_17
REMARK    4  A    between atoms: C_12  and  C_13
REMARK    5  A    between atoms: C_13  and  C_14
REMARK    6  A    between atoms: C_14  and  C_15
REMARK    7  A    between atoms: C_15  and  N_16
REMARK    8  A    between atoms: C_17  and  C_18
REMARK                            x       y       z     vdW  Elec       q    Type
REMARK                         _______ _______ _______ _____ _____    ______ ____
ROOT
ATOM      1  N   UNL     1      19.303  33.047  12.905  0.00  0.00    +0.247 N 
ATOM      2  H   UNL     1      18.749  33.768  12.409  0.00  0.00    +0.204 HD
ENDROOT
BRANCH   1   5
ATOM      3  C   UNL     1      19.936  35.223  15.128  0.00  0.00    +0.011 C 
ATOM      4  C   UNL     1      19.789  33.716  15.316  0.00  0.00    +0.061 C 
ATOM      5  C   UNL     1      18.749  33.124  14.344  0.00  0.00    +0.115 C 
ATOM      6  C   UNL     1      17.439  33.917  14.439  0.00  0.00    +0.092 A 
ATOM      7  C   UNL     1      17.412  35.230  14.921  0.00  0.00    -0.021 A 
ATOM      8  C   UNL     1      18.627  35.931  15.465  0.00  0.00    +0.037 C 
ATOM      9  C   UNL     1      16.174  35.881  14.979  0.00  0.00    +0.007 A 
ATOM     10  C   UNL     1      15.021  35.225  14.567  0.00  0.00    +0.020 A 
ATOM     11  C   UNL     1      15.140  33.935  14.094  0.00  0.00    +0.111 A 
ATOM     12  N   UNL     1      16.322  33.280  13.992  0.00  0.00    -0.254 NA
ENDBRANCH   1   5
BRANCH   1  13
ATOM     13  C   UNL     1      20.716  33.467  12.614  0.00  0.00    +0.132 C 
BRANCH  13  14
ATOM     14  C   UNL     1      21.747  32.326  12.581  0.00  0.00    +0.056 C 
BRANCH  14  15
ATOM     15  C   UNL     1      23.019  32.501  13.430  0.00  0.00    +0.056 C 
BRANCH  15  16
ATOM     16  C   UNL     1      24.336  32.125  12.744  0.00  0.00    +0.127 C 
BRANCH  16  17
ATOM     17  N   UNL     1      24.241  30.795  12.095  0.00  0.00    +0.219 N 
ATOM     18  H   UNL     1      23.496  30.762  11.382  0.00  0.00    +0.199 HD
ATOM     19  H   UNL     1      25.114  30.574  11.589  0.00  0.00    +0.199 HD
ATOM     20  H   UNL     1      24.080  30.013  12.744  0.00  0.00    +0.199 HD
ENDBRANCH  16  17
ENDBRANCH  15  16
ENDBRANCH  14  15
ENDBRANCH  13  14
ENDBRANCH   1  13
BRANCH   1  21
ATOM     21  C   UNL     1      18.848  31.800  12.145  0.00  0.00    +0.207 C 
BRANCH  21  22
ATOM     22  C   UNL     1      18.033  32.222  10.980  0.00  0.00    +0.154 A 
ATOM     23  N   UNL     1      17.406  33.380  10.921  0.00  0.00    -0.227 NA
ATOM     24  C   UNL     1      16.747  33.372   9.713  0.00  0.00    +0.089 A 
ATOM     25  C   UNL     1      15.964  34.366   9.110  0.00  0.00    +0.030 A 
ATOM     26  C   UNL     1      15.384  34.096   7.865  0.00  0.00    +0.002 A 
ATOM     27  C   UNL     1      15.574  32.862   7.239  0.00  0.00    +0.002 A 
ATOM     28  C   UNL     1      16.355  31.859   7.825  0.00  0.00    +0.028 A 
ATOM     29  C   UNL     1      16.932  32.157   9.060  0.00  0.00    +0.066 A 
ATOM     30  N   UNL     1      17.747  31.434   9.894  0.00  0.00    -0.338 N 
ATOM     31  H   UNL     1      18.050  30.482   9.734  0.00  0.00    +0.167 HD
ENDBRANCH  21  22
ENDBRANCH   1  21
TORSDOF 8
ENDMDL
MODEL 3
REMARK minimizedAffinity -7.95495033
REMARK minimizedRMSD -1
REMARK  Name = 
REMARK  8 active torsions:
REMARK  status: ('A' for Active; 'I' for Inactive)
REMARK    1  A    between atoms: C_3  and  N_11
REMARK    2  A    between atoms: N_11  and  C_12
REMARK    3  A    between atoms: N_11  and  C_17
REMARK    4  A    between atoms: C_12  and  C_13
REMARK    5  A    between atoms: C_13  and  C_14
REMARK    6  A    between atoms: C_14  and  C_15
REMARK    7  A    between atoms: C_15  and  N_16
REMARK    8  A    between atoms: C_17  and  C_18
REMARK                            x       y       z     vdW  Elec       q    Type
REMARK                         _______ _______ _______ _____ _____    ______ ____
ROOT
ATOM      1  N   UNL     1      18.840  33.637  15.901  0.00  0.00    +0.247 N 
ATOM      2  H   UNL     1      18.351  34.294  15.266  0.00  0.00    +0.204 HD
ENDROOT
BRANCH   1   5
ATOM      3  C   UNL     1      19.079  36.222  17.730  0.00  0.00    +0.011 C 
ATOM      4  C   UNL     1      19.050  34.763  18.178  0.00  0.00    +0.061 C 
ATOM      5  C   UNL     1      18.156  33.907  17.259  0.00  0.00    +0.115 C 
ATOM      6  C   UNL     1      16.778  34.565  17.114  0.00  0.00    +0.092 A 
ATOM      7  C   UNL     1      16.592  35.933  17.345  0.00  0.00    -0.021 A 
ATOM      8  C   UNL     1      17.688  36.840  17.838  0.00  0.00    +0.037 C 
ATOM      9  C   UNL     1      15.301  36.453  17.195  0.00  0.00    +0.007 A 
ATOM     10  C   UNL     1      14.252  35.620  16.828  0.00  0.00    +0.020 A 
ATOM     11  C   UNL     1      14.526  34.287  16.609  0.00  0.00    +0.111 A 
ATOM     12  N   UNL     1      15.766  33.748  16.712  0.00  0.00    -0.254 NA
ENDBRANCH   1   5
BRANCH   1  13
ATOM     13  C   UNL     1      20.283  34.001  15.695  0.00  0.00    +0.132 C 
BRANCH  13  14
ATOM     14  C   UNL     1      21.292  32.876  15.981  0.00  0.00    +0.056 C 
BRANCH  14  15
ATOM     15  C   UNL     1      22.178  32.410  14.812  0.00  0.00    +0.056 C 
BRANCH  15  16
ATOM     16  C   UNL     1      21.835  32.999  13.440  0.00  0.00    +0.127 C 
BRANCH  16  17
ATOM     17  N   UNL     1      21.490  31.932  12.470  0.00  0.00    +0.219 N 
ATOM     18  H   UNL     1      20.681  31.370  12.781  0.00  0.00    +0.199 HD
ATOM     19  H   UNL     1      21.206  32.340  11.565  0.00  0.00    +0.199 HD
ATOM     20  H   UNL     1      22.255  31.277  12.263  0.00  0.00    +0.199 HD
ENDBRANCH  16  17
ENDBRANCH  15  16
ENDBRANCH  14  15
ENDBRANCH  13  14
ENDBRANCH   1  13
BRANCH   1  21
ATOM     21  C   UNL     1      18.430  32.306  15.269  0.00  0.00    +0.207 C 
BRANCH  21  22
ATOM     22  C   UNL     1      17.910  32.568  13.904  0.00  0.00    +0.154 A 
ATOM     23  N   UNL     1      18.467  32.078  12.815  0.00  0.00    -0.227 NA
ATOM     24  C   UNL     1      17.718  32.574  11.772  0.00  0.00    +0.089 A 
ATOM     25  C   UNL     1      17.832  32.343  10.395  0.00  0.00    +0.030 A 
ATOM     26  C   UNL     1      16.940  32.993   9.533  0.00  0.00    +0.002 A 
ATOM     27  C   UNL     1      15.964  33.858  10.031  0.00  0.00    +0.002 A 
ATOM     28  C   UNL     1      15.835  34.099  11.404  0.00  0.00    +0.028 A 
ATOM     29  C   UNL     1      16.727  33.430  12.243  0.00  0.00    +0.066 A 
ATOM     30  N   UNL     1      16.877  33.419  13.607  0.00  0.00    -0.338 N 
ATOM     31  H   UNL     1      16.332  33.970  14.259  0.00  0.00    +0.167 HD
ENDBRANCH  21  22
ENDBRANCH   1  21
TORSDOF 8
ENDMDL
MODEL 4
REMARK minimizedAffinity -7.80397701
REMARK minimizedRMSD -1
REMARK  Name = 
REMARK  8 active torsions:
REMARK  status: ('A' for Active; 'I' for Inactive)
REMARK    1  A    between atoms: C_3  and  N_11
REMARK    2  A    between atoms: N_11  and  C_12
REMARK    3  A    between atoms: N_11  and  C_17
REMARK    4  A    between atoms: C_12  and  C_13
REMARK    5  A    between atoms: C_13  and  C_14
REMARK    6  A    between atoms: C_14  and  C_15
REMARK    7  A    between atoms: C_15  and  N_16
REMARK    8  A    between atoms: C_17  and  C_18
REMARK                            x       y       z     vdW  Elec       q    Type
REMARK                         _______ _______ _______ _____ _____    ______ ____
ROOT
ATOM      1  N   UNL     1      16.025  32.155   9.749  0.00  0.00    +0.247 N 
ATOM      2  H   UNL     1      16.434  31.209   9.851  0.00  0.00    +0.204 HD
ENDROOT
BRANCH   1   5
ATOM      3  C   UNL     1      17.700  31.608   7.109  0.00  0.00    +0.011 C 
ATOM      4  C   UNL     1      16.611  32.656   7.320  0.00  0.00    +0.061 C 
ATOM      5  C   UNL     1      15.523  32.152   8.289  0.00  0.00    +0.115 C 
ATOM      6  C   UNL     1      15.016  30.778   7.833  0.00  0.00    +0.092 A 
ATOM      7  C   UNL     1      15.790  29.947   7.014  0.00  0.00    -0.021 A 
ATOM      8  C   UNL     1      17.120  30.363   6.444  0.00  0.00    +0.037 C 
ATOM      9  C   UNL     1      15.250  28.711   6.640  0.00  0.00    +0.007 A 
ATOM     10  C   UNL     1      13.986  28.340   7.079  0.00  0.00    +0.020 A 
ATOM     11  C   UNL     1      13.298  29.214   7.893  0.00  0.00    +0.111 A 
ATOM     12  N   UNL     1      13.794  30.406   8.304  0.00  0.00    -0.254 NA
ENDBRANCH   1   5
BRANCH   1  13
ATOM     13  C   UNL     1      17.164  33.046  10.157  0.00  0.00    +0.132 C 
BRANCH  13  14
ATOM     14  C   UNL     1      18.441  32.316  10.607  0.00  0.00    +0.056 C 
BRANCH  14  15
ATOM     15  C   UNL     1      19.377  33.064  11.572  0.00  0.00    +0.056 C 
BRANCH  15  16
ATOM     16  C   UNL     1      19.941  32.234  12.731  0.00  0.00    +0.127 C 
BRANCH  16  17
ATOM     17  N   UNL     1      21.422  32.180  12.679  0.00  0.00    +0.219 N 
ATOM     18  H   UNL     1      21.848  33.119  12.731  0.00  0.00    +0.199 HD
ATOM     19  H   UNL     1      21.796  31.667  13.493  0.00  0.00    +0.199 HD
ATOM     20  H   UNL     1      21.805  31.715  11.846  0.00  0.00    +0.199 HD
ENDBRANCH  16  17
ENDBRANCH  15  16
ENDBRANCH  14  15
ENDBRANCH  13  14
ENDBRANCH   1  13
BRANCH   1  21
ATOM     21  C   UNL     1      14.897  32.064  10.779  0.00  0.00    +0.207 C 
BRANCH  21  22
ATOM     22  C   UNL     1      15.333  32.745  12.024  0.00  0.00    +0.154 A 
ATOM     23  N   UNL     1      14.974  33.974  12.336  0.00  0.00    -0.227 NA
ATOM     24  C   UNL     1      15.606  34.241  13.529  0.00  0.00    +0.089 A 
ATOM     25  C   UNL     1      15.545  35.381  14.341  0.00  0.00    +0.030 A 
ATOM     26  C   UNL     1      16.309  35.407  15.514  0.00  0.00    +0.002 A 
ATOM     27  C   UNL     1      17.119  34.325  15.865  0.00  0.00    +0.002 A 
ATOM     28  C   UNL     1      17.190  33.178  15.066  0.00  0.00    +0.028 A 
ATOM     29  C   UNL     1      16.410  33.171  13.909  0.00  0.00    +0.066 A 
ATOM     30  N   UNL     1      16.229  32.232  12.926  0.00  0.00    -0.338 N 
ATOM     31  H   UNL     1      16.701  31.338  12.877  0.00  0.00    +0.167 HD
ENDBRANCH  21  22
ENDBRANCH   1  21
TORSDOF 8
ENDMDL
MODEL 5
REMARK minimizedAffinity -7.76051998
REMARK minimizedRMSD -1
REMARK  Name = 
REMARK  8 active torsions:
REMARK  status: ('A' for Active; 'I' for Inactive)
REMARK    1  A    between atoms: C_3  and  N_11
REMARK    2  A    between atoms: N_11  and  C_12
REMARK    3  A    between atoms: N_11  and  C_17
REMARK    4  A    between atoms: C_12  and  C_13
REMARK    5  A    between atoms: C_13  and  C_14
REMARK    6  A    between atoms: C_14  and  C_15
REMARK    7  A    between atoms: C_15  and  N_16
REMARK    8  A    between atoms: C_17  and  C_18
REMARK                            x       y       z     vdW  Elec       q    Type
REMARK                         _______ _______ _______ _____ _____    ______ ____
ROOT
ATOM      1  N   UNL     1      18.281  33.952  14.208  0.00  0.00    +0.247 N 
ATOM      2  H   UNL     1      17.622  34.387  13.537  0.00  0.00    +0.204 HD
ENDROOT
BRANCH   1   5
ATOM      3  C   UNL     1      18.521  33.881  17.372  0.00  0.00    +0.011 C 
ATOM      4  C   UNL     1      18.105  32.744  16.445  0.00  0.00    +0.061 C 
ATOM      5  C   UNL     1      17.333  33.269  15.218  0.00  0.00    +0.115 C 
ATOM      6  C   UNL     1      16.188  34.181  15.674  0.00  0.00    +0.092 A 
ATOM      7  C   UNL     1      16.208  34.812  16.923  0.00  0.00    -0.021 A 
ATOM      8  C   UNL     1      17.290  34.580  17.944  0.00  0.00    +0.037 C 
ATOM      9  C   UNL     1      15.120  35.624  17.264  0.00  0.00    +0.007 A 
ATOM     10  C   UNL     1      14.064  35.785  16.377  0.00  0.00    +0.020 A 
ATOM     11  C   UNL     1      14.131  35.135  15.162  0.00  0.00    +0.111 A 
ATOM     12  N   UNL     1      15.179  34.365  14.779  0.00  0.00    -0.254 NA
ENDBRANCH   1   5
BRANCH   1  13
ATOM     13  C   UNL     1      19.127  35.119  14.633  0.00  0.00    +0.132 C 
BRANCH  13  14
ATOM     14  C   UNL     1      20.642  34.852  14.673  0.00  0.00    +0.056 C 
BRANCH  14  15
ATOM     15  C   UNL     1      21.553  35.852  13.940  0.00  0.00    +0.056 C 
BRANCH  15  16
ATOM     16  C   UNL     1      22.724  35.242  13.162  0.00  0.00    +0.127 C 
BRANCH  16  17
ATOM     17  N   UNL     1      23.642  34.508  14.066  0.00  0.00    +0.219 N 
ATOM     18  H   UNL     1      23.166  33.742  14.567  0.00  0.00    +0.199 HD
ATOM     19  H   UNL     1      24.397  34.054  13.527  0.00  0.00    +0.199 HD
ATOM     20  H   UNL     1      24.107  35.094  14.773  0.00  0.00    +0.199 HD
ENDBRANCH  16  17
ENDBRANCH  15  16
ENDBRANCH  14  15
ENDBRANCH  13  14
ENDBRANCH   1  13
BRANCH   1  21
ATOM     21  C   UNL     1      18.989  32.967  13.277  0.00  0.00    +0.207 C 
BRANCH  21  22
ATOM     22  C   UNL     1      18.294  32.965  11.966  0.00  0.00    +0.154 A 
ATOM     23  N   UNL     1      17.339  33.818  11.656  0.00  0.00    -0.227 NA
ATOM     24  C   UNL     1      16.939  33.466  10.388  0.00  0.00    +0.089 A 
ATOM     25  C   UNL     1      15.986  34.060   9.549  0.00  0.00    +0.030 A 
ATOM     26  C   UNL     1      15.753  33.488   8.293  0.00  0.00    +0.002 A 
ATOM     27  C   UNL     1      16.448  32.346   7.885  0.00  0.00    +0.002 A 
ATOM     28  C   UNL     1      17.404  31.741   8.709  0.00  0.00    +0.028 A 
ATOM     29  C   UNL     1      17.627  32.338   9.951  0.00  0.00    +0.066 A 
ATOM     30  N   UNL     1      18.479  32.029  10.981  0.00  0.00    -0.338 N 
ATOM     31  H   UNL     1      19.104  31.233  11.004  0.00  0.00    +0.167 HD
ENDBRANCH  21  22
ENDBRANCH   1  21
TORSDOF 8
ENDMDL
