REMARK  Name = =
REMARK  4 active torsions:
REMARK  status: ('A' for Active; 'I' for Inactive)
REMARK    1  A    between atoms: N_1  and  C_2
REMARK    2  A    between atoms: N_1  and  C_15
REMARK    3  A    between atoms: N_8  and  C_20
REMARK    4  A    between atoms: C_23  and  C_26
REMARK                            x       y       z     vdW  Elec       q    Type
REMARK                         _______ _______ _______ _____ _____    ______ ____
ROOT
ATOM      1  C   UNL     1      19.888  34.667  15.258  0.00  0.00    +0.128 C 
ATOM      2  N   UNL     1      20.945  34.538  16.078  0.00  0.00    -0.199 NA
ATOM      3  C   UNL     1      21.526  35.650  16.548  0.00  0.00    +0.221 C 
ATOM      4  N   UNL     1      21.098  36.888  16.253  0.00  0.00    -0.223 NA
ATOM      5  C   UNL     1      20.034  36.986  15.438  0.00  0.00    +0.118 C 
ATOM      6  C   UNL     1      19.387  35.900  14.907  0.00  0.00    +0.063 C 
ATOM      7  N   UNL     1      22.628  35.601  17.398  0.00  0.00    -0.284 N 
ATOM      8  H   UNL     1      22.873  36.545  17.661  0.00  0.00    +0.155 HD
ENDROOT
BRANCH   7   9
ATOM      9  C   UNL     1      23.425  34.567  17.894  0.00  0.00    +0.034 C 
ATOM     10  C   UNL     1      23.121  33.829  19.043  0.00  0.00    +0.024 C 
ATOM     11  C   UNL     1      23.967  32.812  19.503  0.00  0.00    +0.020 C 
ATOM     12  C   UNL     1      25.146  32.518  18.819  0.00  0.00    +0.052 C 
ATOM     13  C   UNL     1      25.474  33.245  17.674  0.00  0.00    +0.020 C 
ATOM     14  C   UNL     1      24.620  34.259  17.222  0.00  0.00    +0.024 C 
BRANCH  12  15
ATOM     15  C   UNL     1      26.015  31.478  19.289  0.00  0.00    +0.099 C 
ATOM     16  N   UNL     1      26.718  30.635  19.668  0.00  0.00    -0.191 NA
ENDBRANCH  12  15
ENDBRANCH   7   9
BRANCH   1  17
ATOM     17  N   UNL     1      19.319  33.478  14.803  0.00  0.00    -0.299 N 
ATOM     18  H   UNL     1      19.785  32.662  15.178  0.00  0.00    +0.154 HD
BRANCH  17  23
ATOM     19  C   UNL     1      15.737  32.720  10.398  0.00  0.00    +0.044 C 
ATOM     20  C   UNL     1      16.671  32.881  11.560  0.00  0.00    -0.050 C 
ATOM     21  C   UNL     1      16.169  33.175  12.831  0.00  0.00    +0.008 C 
ATOM     22  C   UNL     1      17.028  33.378  13.925  0.00  0.00    -0.029 C 
ATOM     23  C   UNL     1      18.422  33.239  13.750  0.00  0.00    +0.038 C 
ATOM     24  C   UNL     1      18.934  32.994  12.457  0.00  0.00    -0.029 C 
ATOM     25  C   UNL     1      18.054  32.813  11.378  0.00  0.00    +0.008 C 
ATOM     26  C   UNL     1      20.418  32.899  12.219  0.00  0.00    +0.045 C 
ATOM     27  C   UNL     1      16.420  33.725  15.257  0.00  0.00    +0.045 C 
ENDBRANCH  17  23
ENDBRANCH   1  17
TORSDOF 4
