REMARK  Name = =
REMARK  6 active torsions:
REMARK  status: ('A' for Active; 'I' for Inactive)
REMARK    1  A    between atoms: C_1  and  N_20
REMARK    2  A    between atoms: C_2  and  C_7
REMARK    3  A    between atoms: C_4  and  O_35
REMARK    4  A    between atoms: N_9  and  C_10
REMARK    5  A    between atoms: C_18  and  C_25
REMARK    6  A    between atoms: C_22  and  C_31
REMARK                            x       y       z     vdW  Elec       q    Type
REMARK                         _______ _______ _______ _____ _____    ______ ____
ROOT
ATOM      1  C   UNL     1      18.393  32.786  13.323  0.00  0.00    +0.046 C 
ATOM      2  C   UNL     1      17.473  33.027  12.287  0.00  0.00    +0.062 C 
ATOM      3  C   UNL     1      16.226  33.604  12.551  0.00  0.00    +0.060 C 
ATOM      4  C   UNL     1      15.898  34.006  13.845  0.00  0.00    +0.121 C 
ATOM      5  C   UNL     1      16.817  33.805  14.874  0.00  0.00    +0.047 C 
ATOM      6  C   UNL     1      18.053  33.196  14.616  0.00  0.00    +0.027 C 
ENDROOT
BRANCH   2   7
ATOM      7  C   UNL     1      17.731  32.556  10.911  0.00  0.00    +0.251 C 
ATOM      8  O   UNL     1      18.859  32.695  10.459  0.00  0.00    -0.270 OA
ATOM      9  N   UNL     1      16.627  32.037  10.284  0.00  0.00    -0.266 N 
ATOM     10  H   UNL     1      15.771  31.889  10.804  0.00  0.00    +0.157 HD
BRANCH   9  11
ATOM     11  C   UNL     1      16.510  31.635   8.954  0.00  0.00    +0.125 C 
ATOM     12  N   UNL     1      15.270  31.200   8.642  0.00  0.00    -0.239 NA
ATOM     13  C   UNL     1      15.051  30.817   7.358  0.00  0.00    +0.132 C 
ATOM     14  C   UNL     1      16.016  30.854   6.366  0.00  0.00    +0.059 C 
ATOM     15  C   UNL     1      17.283  31.304   6.706  0.00  0.00    +0.025 C 
ATOM     16  C   UNL     1      17.537  31.703   8.021  0.00  0.00    +0.045 C 
ATOM     17 CL   UNL     1      15.660  30.362   4.763  0.00  0.00    -0.082 Cl
ENDBRANCH   9  11
ENDBRANCH   2   7
BRANCH   1  20
ATOM     18  C   UNL     1      20.911  32.702  13.130  0.00  0.00    +0.248 C 
ATOM     19  O   UNL     1      21.823  32.233  12.453  0.00  0.00    -0.270 OA
ATOM     20  N   UNL     1      19.641  32.188  13.043  0.00  0.00    -0.281 N 
ATOM     21  H   UNL     1      19.640  31.236  12.685  0.00  0.00    +0.155 HD
BRANCH  18  25
ATOM     22  C   UNL     1      22.226  35.634  15.972  0.00  0.00    +0.061 C 
ATOM     23  C   UNL     1      21.805  36.016  14.690  0.00  0.00    +0.016 C 
ATOM     24  C   UNL     1      21.331  35.058  13.788  0.00  0.00    +0.014 C 
ATOM     25  C   UNL     1      21.257  33.712  14.163  0.00  0.00    +0.037 C 
ATOM     26  C   UNL     1      21.665  33.327  15.447  0.00  0.00    +0.014 C 
ATOM     27  C   UNL     1      22.131  34.286  16.350  0.00  0.00    +0.016 C 
BRANCH  22  31
ATOM     28  C   UNL     1      22.534  38.384  18.612  0.00  0.00    +0.276 C 
ATOM     29  N   UNL     1      22.012  37.309  17.749  0.00  0.00    -0.229 N 
ATOM     30  C   UNL     1      20.563  37.007  17.884  0.00  0.00    +0.276 C 
ATOM     31  C   UNL     1      22.792  36.632  16.902  0.00  0.00    +0.270 C 
ATOM     32  N   UNL     1      24.096  36.817  16.818  0.00  0.00    -0.288 N 
ATOM     33  H   UNL     1      24.635  36.285  16.143  0.00  0.00    +0.301 HD
ATOM     34  H   UNL     1      24.597  37.462  17.408  0.00  0.00    +0.301 HD
ENDBRANCH  22  31
ENDBRANCH  18  25
ENDBRANCH   1  20
BRANCH   4  35
ATOM     35  O   UNL     1      14.660  34.570  13.968  0.00  0.00    -0.495 OA
ATOM     36  C   UNL     1      14.156  34.759  15.286  0.00  0.00    +0.277 C 
ENDBRANCH   4  35
TORSDOF 6
