REMARK  Name = =
REMARK  2 active torsions:
REMARK  status: ('A' for Active; 'I' for Inactive)
REMARK    1  A    between atoms: C_1  and  N_17
REMARK    2  A    between atoms: C_15  and  N_17
REMARK                            x       y       z     vdW  Elec       q    Type
REMARK                         _______ _______ _______ _____ _____    ______ ____
ROOT
ATOM      1  C   UNL     1      18.345  32.939  15.575  0.00  0.00    +0.108 C 
ATOM      2  C   UNL     1      17.190  33.408  14.920  0.00  0.00    +0.082 C 
ATOM      3  C   UNL     1      16.177  34.102  15.596  0.00  0.00    +0.106 C 
ATOM      4  N   UNL     1      15.054  34.534  14.971  0.00  0.00    -0.251 NA
ATOM      5  C   UNL     1      14.140  35.193  15.718  0.00  0.00    +0.131 C 
ATOM      6  C   UNL     1      14.327  35.421  17.061  0.00  0.00    +0.131 C 
ATOM      7  N   UNL     1      15.435  35.001  17.709  0.00  0.00    -0.252 NA
ATOM      8  C   UNL     1      16.352  34.347  16.979  0.00  0.00    +0.090 C 
ATOM      9  C   UNL     1      17.509  33.914  17.612  0.00  0.00    +0.033 C 
ATOM     10  C   UNL     1      18.508  33.222  16.926  0.00  0.00    +0.043 C 
ATOM     11 BR   UNL     1      17.003  33.059  13.045  0.00  0.00    -0.045 Br
ENDROOT
BRANCH   1  12
ATOM     12  N   UNL     1      19.344  32.257  14.813  0.00  0.00    -0.208 N 
ATOM     13  H   UNL     1      19.288  31.241  14.811  0.00  0.00    +0.251 HD
BRANCH  12  17
ATOM     14  C   UNL     1      22.239  32.931  12.808  0.00  0.00    +0.221 C 
ATOM     15  C   UNL     1      22.082  34.253  13.571  0.00  0.00    +0.230 C 
ATOM     16  N   UNL     1      20.902  34.052  14.417  0.00  0.00    -0.279 N 
ATOM     17  C   UNL     1      20.400  32.803  14.196  0.00  0.00    +0.334 C 
ATOM     18  N   UNL     1      21.134  32.097  13.285  0.00  0.00    -0.238 N 
ATOM     19  H   UNL     1      20.611  34.640  15.187  0.00  0.00    +0.258 HD
ATOM     20  H   UNL     1      20.900  31.163  12.974  0.00  0.00    +0.244 HD
ENDBRANCH  12  17
ENDBRANCH   1  12
TORSDOF 2
