REMARK  Name = =
REMARK  6 active torsions:
REMARK  status: ('A' for Active; 'I' for Inactive)
REMARK    1  A    between atoms: C_1  and  N_23
REMARK    2  A    between atoms: C_2  and  O_32
REMARK    3  A    between atoms: N_11  and  C_13
REMARK    4  A    between atoms: C_21  and  C_26
REMARK    5  A    between atoms: C_25  and  C_27
REMARK    6  A    between atoms: C_27  and  N_29
REMARK                            x       y       z     vdW  Elec       q    Type
REMARK                         _______ _______ _______ _____ _____    ______ ____
ROOT
ATOM      1  C   UNL     1      17.152  33.143  12.225  0.00  0.00    +0.077 C 
ATOM      2  C   UNL     1      17.729  32.340  11.284  0.00  0.00    +0.144 C 
ATOM      3  C   UNL     1      19.100  32.162  11.195  0.00  0.00    +0.076 C 
ATOM      4  C   UNL     1      19.938  32.703  12.148  0.00  0.00    +0.080 C 
ATOM      5  C   UNL     1      19.379  33.445  13.202  0.00  0.00    +0.042 C 
ATOM      6  C   UNL     1      17.979  33.723  13.190  0.00  0.00    +0.040 C 
ATOM      7  C   UNL     1      20.289  33.785  14.226  0.00  0.00    +0.134 C 
ATOM      8  N   UNL     1      21.605  33.520  14.116  0.00  0.00    -0.220 NA
ATOM      9  C   UNL     1      22.018  32.871  13.027  0.00  0.00    +0.223 C 
ATOM     10  N   UNL     1      21.236  32.427  12.044  0.00  0.00    -0.235 NA
ATOM     11  N   UNL     1      19.814  34.340  15.439  0.00  0.00    -0.299 N 
ATOM     12  H   UNL     1      18.864  34.074  15.655  0.00  0.00    +0.154 HD
ENDROOT
BRANCH  11  13
ATOM     13  C   UNL     1      20.557  34.702  16.584  0.00  0.00    +0.034 C 
ATOM     14  C   UNL     1      20.993  33.694  17.458  0.00  0.00    +0.046 C 
ATOM     15  C   UNL     1      21.811  34.001  18.549  0.00  0.00    +0.078 C 
ATOM     16  C   UNL     1      22.189  35.319  18.785  0.00  0.00    +0.142 C 
ATOM     17  C   UNL     1      21.751  36.334  17.945  0.00  0.00    +0.041 C 
ATOM     18  C   UNL     1      20.938  36.025  16.851  0.00  0.00    +0.026 C 
ATOM     19  F   UNL     1      22.986  35.632  19.816  0.00  0.00    -0.204 F 
ATOM     20 CL   UNL     1      22.361  32.731  19.574  0.00  0.00    -0.081 Cl
ENDBRANCH  11  13
BRANCH   1  21
ATOM     21  N   UNL     1      15.661  33.285  12.316  0.00  0.00    -0.279 NA
ATOM     22  H   UNL     1      15.438  33.556  11.335  0.00  0.00    +0.155 HD
ENDBRANCH   1  21
BRANCH   2  23
ATOM     23  O   UNL     1      16.907  31.642  10.493  0.00  0.00    -0.485 OA
ATOM     24  C   UNL     1      17.091  32.174   9.182  0.00  0.00    +0.201 C 
ENDBRANCH   2  23
TORSDOF 3
REMARK  Name = =
REMARK  6 active torsions:
REMARK  status: ('A' for Active; 'I' for Inactive)
REMARK    1  A    between atoms: C_1  and  N_23
REMARK    2  A    between atoms: C_2  and  O_32
REMARK    3  A    between atoms: N_11  and  C_13
REMARK    4  A    between atoms: C_21  and  C_26
REMARK    5  A    between atoms: C_25  and  C_27
REMARK    6  A    between atoms: C_27  and  N_29
REMARK                            x       y       z     vdW  Elec       q    Type
REMARK                         _______ _______ _______ _____ _____    ______ ____
ROOT
ATOM      1  C   UNL     1      14.044  36.029  16.905  0.00  0.00    +0.159 C 
ENDROOT
BRANCH   1   3
ATOM      2  C   UNL     1      15.780  34.465  17.925  0.00  0.00    +0.190 C 
ATOM      3  N   UNL     1      15.223  35.863  17.843  0.00  0.00    +0.234 N 
ATOM      4  C   UNL     1      16.314  36.848  17.516  0.00  0.00    +0.190 C 
ATOM      5  H   UNL     1      14.883  36.100  18.785  0.00  0.00    +0.203 HD
ENDBRANCH   1   3
BRANCH   1   6
ATOM      6  C   UNL     1      14.350  35.576  15.515  0.00  0.00    +0.028 C 
ATOM      7  C   UNL     1      13.891  34.454  14.913  0.00  0.00    +0.068 C 
BRANCH   7   8
ATOM      8  C   UNL     1      14.076  33.687  13.396  0.00  0.00    +0.241 C 
ATOM      9  O   UNL     1      12.857  33.505  13.121  0.00  0.00    -0.271 OA
ENDBRANCH   7   8
ENDBRANCH   1   6
TORSDOF 3
REMARK  Name = =
REMARK  6 active torsions:
REMARK  status: ('A' for Active; 'I' for Inactive)
REMARK    1  A    between atoms: C_1  and  N_23
REMARK    2  A    between atoms: C_2  and  O_32
REMARK    3  A    between atoms: N_11  and  C_13
REMARK    4  A    between atoms: C_21  and  C_26
REMARK    5  A    between atoms: C_25  and  C_27
REMARK    6  A    between atoms: C_27  and  N_29
REMARK                            x       y       z     vdW  Elec       q    Type
REMARK                         _______ _______ _______ _____ _____    ______ ____
ROOT
ATOM      1  C   UNL     1      15.839  33.672   8.707  0.00  0.00    +0.075 C 
ENDROOT
TORSDOF 0
REMARK  Name = =
REMARK  6 active torsions:
REMARK  status: ('A' for Active; 'I' for Inactive)
REMARK    1  A    between atoms: C_1  and  N_23
REMARK    2  A    between atoms: C_2  and  O_32
REMARK    3  A    between atoms: N_11  and  C_13
REMARK    4  A    between atoms: C_21  and  C_26
REMARK    5  A    between atoms: C_25  and  C_27
REMARK    6  A    between atoms: C_27  and  N_29
REMARK                            x       y       z     vdW  Elec       q    Type
REMARK                         _______ _______ _______ _____ _____    ______ ____
ROOT
ATOM      1  C   UNL     1      14.963  33.241   6.963  0.00  0.00    +0.163 C 
ENDROOT
TORSDOF 0
REMARK  Name = =
REMARK  6 active torsions:
REMARK  status: ('A' for Active; 'I' for Inactive)
REMARK    1  A    between atoms: C_1  and  N_23
REMARK    2  A    between atoms: C_2  and  O_32
REMARK    3  A    between atoms: N_11  and  C_13
REMARK    4  A    between atoms: C_21  and  C_26
REMARK    5  A    between atoms: C_25  and  C_27
REMARK    6  A    between atoms: C_27  and  N_29
REMARK                            x       y       z     vdW  Elec       q    Type
REMARK                         _______ _______ _______ _____ _____    ______ ____
ROOT
ATOM      1  O   UNL     1      15.768  31.596   6.317  0.00  0.00    -0.376 OA
ENDROOT
TORSDOF 0
REMARK  Name = =
REMARK  6 active torsions:
REMARK  status: ('A' for Active; 'I' for Inactive)
REMARK    1  A    between atoms: C_1  and  N_23
REMARK    2  A    between atoms: C_2  and  O_32
REMARK    3  A    between atoms: N_11  and  C_13
REMARK    4  A    between atoms: C_21  and  C_26
REMARK    5  A    between atoms: C_25  and  C_27
REMARK    6  A    between atoms: C_27  and  N_29
REMARK                            x       y       z     vdW  Elec       q    Type
REMARK                         _______ _______ _______ _____ _____    ______ ____
ROOT
ATOM      1  C   UNL     1      17.019  30.835   7.606  0.00  0.00    +0.204 C 
ENDROOT
TORSDOF 0
