REMARK  Name = =
REMARK  0 active torsions:
REMARK  status: ('A' for Active; 'I' for Inactive)
REMARK                            x       y       z     vdW  Elec       q    Type
REMARK                         _______ _______ _______ _____ _____    ______ ____
ROOT
ATOM      1  C   UNL     1      15.951  35.120  15.242  0.00  0.00    +0.067 C 
ATOM      2  C   UNL     1      16.525  34.230  14.187  0.00  0.00    +0.057 C 
ATOM      3  C   UNL     1      17.422  33.221  14.516  0.00  0.00    +0.134 C 
ATOM      4  N   UNL     1      17.972  32.384  13.602  0.00  0.00    -0.252 NA
ATOM      5  C   UNL     1      17.601  32.573  12.321  0.00  0.00    +0.091 C 
ATOM      6  C   UNL     1      18.114  31.762  11.317  0.00  0.00    +0.032 C 
ATOM      7  C   UNL     1      17.764  31.913   9.969  0.00  0.00    +0.030 C 
ATOM      8  C   UNL     1      16.858  32.933   9.657  0.00  0.00    +0.072 A 
ATOM      9  C   UNL     1      16.314  33.776  10.628  0.00  0.00    +0.118 A 
ATOM     10  C   UNL     1      16.688  33.597  11.983  0.00  0.00    +0.117 C 
ATOM     11  N   UNL     1      16.142  34.434  12.907  0.00  0.00    -0.247 NA
ATOM     12  N   UNL     1      15.454  34.686  10.041  0.00  0.00    -0.212 NA
ATOM     13  C   UNL     1      15.463  34.420   8.761  0.00  0.00    +0.194 A 
ATOM     14  N   UNL     1      16.298  33.368   8.476  0.00  0.00    -0.315 N 
ATOM     15  C   UNL     1      16.537  32.823   7.162  0.00  0.00    +0.152 C 
ATOM     16  N   UNL     1      14.762  35.071   7.828  0.00  0.00    -0.329 N 
ATOM     17  H   UNL     1      14.169  35.837   8.130  0.00  0.00    +0.145 HD
ATOM     18  H   UNL     1      14.763  34.870   6.838  0.00  0.00    +0.145 HD
ENDROOT
TORSDOF 0
