MODEL 1
REMARK minimizedAffinity -10.6256094
REMARK minimizedRMSD -1
REMARK  Name = 
REMARK  6 active torsions:
REMARK  status: ('A' for Active; 'I' for Inactive)
REMARK    1  A    between atoms: C_1  and  C_2
REMARK    2  A    between atoms: C_8  and  N_12
REMARK    3  A    between atoms: N_15  and  C_18
REMARK    4  A    between atoms: C_18  and  C_19
REMARK    5  A    between atoms: C_19  and  C_20
REMARK    6  A    between atoms: C_22  and  N_26
REMARK                            x       y       z     vdW  Elec       q    Type
REMARK                         _______ _______ _______ _____ _____    ______ ____
ROOT
ATOM      1  N   UNL     1      17.965  34.614  14.691  0.00  0.00    -0.319 N 
ATOM      2  C   UNL     1      16.794  35.426  14.333  0.00  0.00    +0.156 C 
ATOM      3  C   UNL     1      15.561  34.523  14.119  0.00  0.00    +0.150 C 
ATOM      4  N   UNL     1      15.852  33.391  13.125  0.00  0.00    +0.238 N 
ATOM      5  C   UNL     1      17.065  32.587  13.598  0.00  0.00    +0.150 C 
ATOM      6  C   UNL     1      18.302  33.482  13.816  0.00  0.00    +0.156 C 
ATOM      7  H   UNL     1      15.040  32.759  13.194  0.00  0.00    +0.203 HD
ENDROOT
BRANCH   1  15
ATOM      8  C   UNL     1      18.790  38.693  19.767  0.00  0.00    +0.065 C 
ATOM      9  C   UNL     1      18.811  37.797  18.565  0.00  0.00    +0.039 A 
ATOM     10  N   UNL     1      19.987  37.673  17.905  0.00  0.00    -0.252 NA
ATOM     11  C   UNL     1      20.046  36.880  16.822  0.00  0.00    +0.073 A 
ATOM     12  C   UNL     1      18.933  36.162  16.334  0.00  0.00    +0.021 A 
ATOM     13  C   UNL     1      17.727  36.314  17.043  0.00  0.00    +0.013 A 
ATOM     14  C   UNL     1      17.662  37.136  18.165  0.00  0.00    +0.024 A 
ATOM     15  C   UNL     1      19.066  35.336  15.181  0.00  0.00    +0.039 A 
ATOM     16  C   UNL     1      20.312  35.251  14.543  0.00  0.00    +0.024 A 
ATOM     17  C   UNL     1      21.404  35.960  15.030  0.00  0.00    +0.004 A 
ATOM     18  C   UNL     1      21.258  36.764  16.161  0.00  0.00    +0.028 A 
ENDBRANCH   1  15
BRANCH   4  19
ATOM     19  C   UNL     1      15.905  33.867  11.686  0.00  0.00    +0.136 C 
BRANCH  19  20
ATOM     20  C   UNL     1      16.900  33.065  10.830  0.00  0.00    +0.086 C 
BRANCH  20  21
ATOM     21  C   UNL     1      16.401  32.810   9.428  0.00  0.00    -0.041 A 
ATOM     22  C   UNL     1      16.611  31.564   8.809  0.00  0.00    +0.027 A 
ATOM     23  C   UNL     1      16.217  31.328   7.481  0.00  0.00    +0.038 A 
ATOM     24  C   UNL     1      15.605  32.377   6.787  0.00  0.00    +0.023 A 
ATOM     25  C   UNL     1      15.364  33.610   7.399  0.00  0.00    +0.002 A 
ATOM     26  C   UNL     1      15.752  33.825   8.716  0.00  0.00    +0.004 A 
BRANCH  23  27
ATOM     27  N   UNL     1      16.416  30.061   6.878  0.00  0.00    -0.254 N 
ATOM     28  C   UNL     1      15.455  28.978   6.941  0.00  0.00    +0.134 C 
ATOM     29  C   UNL     1      15.969  27.947   5.945  0.00  0.00    +0.125 C 
ATOM     30  N   UNL     1      17.310  28.367   5.681  0.00  0.00    -0.297 N 
ATOM     31  C   UNL     1      17.557  29.643   6.165  0.00  0.00    +0.307 C 
ATOM     32  O   UNL     1      18.612  30.224   5.980  0.00  0.00    -0.252 OA
ATOM     33  H   UNL     1      17.994  27.894   5.106  0.00  0.00    +0.150 HD
ENDBRANCH  23  27
ENDBRANCH  20  21
ENDBRANCH  19  20
ENDBRANCH   4  19
TORSDOF 5
ENDMDL
MODEL 2
REMARK minimizedAffinity -10.4250383
REMARK minimizedRMSD -1
REMARK  Name = 
REMARK  6 active torsions:
REMARK  status: ('A' for Active; 'I' for Inactive)
REMARK    1  A    between atoms: C_1  and  C_2
REMARK    2  A    between atoms: C_8  and  N_12
REMARK    3  A    between atoms: N_15  and  C_18
REMARK    4  A    between atoms: C_18  and  C_19
REMARK    5  A    between atoms: C_19  and  C_20
REMARK    6  A    between atoms: C_22  and  N_26
REMARK                            x       y       z     vdW  Elec       q    Type
REMARK                         _______ _______ _______ _____ _____    ______ ____
ROOT
ATOM      1  N   UNL     1      17.850  33.612  14.742  0.00  0.00    -0.319 N 
ATOM      2  C   UNL     1      17.498  32.189  14.641  0.00  0.00    +0.156 C 
ATOM      3  C   UNL     1      18.676  31.387  14.049  0.00  0.00    +0.150 C 
ATOM      4  N   UNL     1      19.169  31.994  12.728  0.00  0.00    +0.238 N 
ATOM      5  C   UNL     1      19.538  33.464  12.941  0.00  0.00    +0.150 C 
ATOM      6  C   UNL     1      18.366  34.272  13.536  0.00  0.00    +0.156 C 
ATOM      7  H   UNL     1      20.050  31.501  12.520  0.00  0.00    +0.203 HD
ENDROOT
BRANCH   1  15
ATOM      8  C   UNL     1      18.762  38.430  19.106  0.00  0.00    +0.065 C 
ATOM      9  C   UNL     1      18.342  37.355  18.149  0.00  0.00    +0.039 A 
ATOM     10  N   UNL     1      17.014  37.122  18.022  0.00  0.00    -0.252 NA
ATOM     11  C   UNL     1      16.598  36.166  17.174  0.00  0.00    +0.073 A 
ATOM     12  C   UNL     1      17.485  35.385  16.401  0.00  0.00    +0.021 A 
ATOM     13  C   UNL     1      18.857  35.654  16.558  0.00  0.00    +0.013 A 
ATOM     14  C   UNL     1      19.292  36.643  17.436  0.00  0.00    +0.024 A 
ATOM     15  C   UNL     1      16.976  34.390  15.519  0.00  0.00    +0.039 A 
ATOM     16  C   UNL     1      15.589  34.198  15.434  0.00  0.00    +0.024 A 
ATOM     17  C   UNL     1      14.722  34.971  16.198  0.00  0.00    +0.004 A 
ATOM     18  C   UNL     1      15.235  35.943  17.056  0.00  0.00    +0.028 A 
ENDBRANCH   1  15
BRANCH   4  19
ATOM     19  C   UNL     1      18.236  31.717  11.565  0.00  0.00    +0.136 C 
BRANCH  19  20
ATOM     20  C   UNL     1      18.163  32.887  10.570  0.00  0.00    +0.086 C 
BRANCH  20  21
ATOM     21  C   UNL     1      17.222  32.623   9.418  0.00  0.00    -0.041 A 
ATOM     22  C   UNL     1      17.276  31.406   8.714  0.00  0.00    +0.027 A 
ATOM     23  C   UNL     1      16.458  31.167   7.596  0.00  0.00    +0.038 A 
ATOM     24  C   UNL     1      15.583  32.183   7.201  0.00  0.00    +0.023 A 
ATOM     25  C   UNL     1      15.498  33.386   7.908  0.00  0.00    +0.002 A 
ATOM     26  C   UNL     1      16.308  33.603   9.017  0.00  0.00    +0.004 A 
BRANCH  23  27
ATOM     27  N   UNL     1      16.509  29.929   6.910  0.00  0.00    -0.254 N 
ATOM     28  C   UNL     1      15.456  28.934   6.962  0.00  0.00    +0.134 C 
ATOM     29  C   UNL     1      15.822  27.927   5.880  0.00  0.00    +0.125 C 
ATOM     30  N   UNL     1      17.182  28.240   5.569  0.00  0.00    -0.297 N 
ATOM     31  C   UNL     1      17.570  29.456   6.113  0.00  0.00    +0.307 C 
ATOM     32  O   UNL     1      18.664  29.950   5.905  0.00  0.00    -0.252 OA
ATOM     33  H   UNL     1      17.790  27.744   4.931  0.00  0.00    +0.150 HD
ENDBRANCH  23  27
ENDBRANCH  20  21
ENDBRANCH  19  20
ENDBRANCH   4  19
TORSDOF 5
ENDMDL
MODEL 3
REMARK minimizedAffinity -10.420536
REMARK minimizedRMSD -1
REMARK  Name = 
REMARK  6 active torsions:
REMARK  status: ('A' for Active; 'I' for Inactive)
REMARK    1  A    between atoms: C_1  and  C_2
REMARK    2  A    between atoms: C_8  and  N_12
REMARK    3  A    between atoms: N_15  and  C_18
REMARK    4  A    between atoms: C_18  and  C_19
REMARK    5  A    between atoms: C_19  and  C_20
REMARK    6  A    between atoms: C_22  and  N_26
REMARK                            x       y       z     vdW  Elec       q    Type
REMARK                         _______ _______ _______ _____ _____    ______ ____
ROOT
ATOM      1  N   UNL     1      17.041  32.915  11.086  0.00  0.00    -0.319 N 
ATOM      2  C   UNL     1      18.509  32.891  11.055  0.00  0.00    +0.156 C 
ATOM      3  C   UNL     1      19.057  32.103  12.264  0.00  0.00    +0.150 C 
ATOM      4  N   UNL     1      18.477  32.619  13.588  0.00  0.00    +0.238 N 
ATOM      5  C   UNL     1      16.948  32.578  13.533  0.00  0.00    +0.150 C 
ATOM      6  C   UNL     1      16.392  33.361  12.326  0.00  0.00    +0.156 C 
ATOM      7  H   UNL     1      18.761  31.923  14.293  0.00  0.00    +0.203 HD
ENDROOT
BRANCH   1  15
ATOM      8  C   UNL     1      16.056  30.148   5.215  0.00  0.00    +0.065 C 
ATOM      9  C   UNL     1      16.179  30.953   6.474  0.00  0.00    +0.039 A 
ATOM     10  N   UNL     1      15.651  32.200   6.466  0.00  0.00    -0.252 NA
ATOM     11  C   UNL     1      15.742  32.953   7.575  0.00  0.00    +0.073 A 
ATOM     12  C   UNL     1      16.367  32.505   8.760  0.00  0.00    +0.021 A 
ATOM     13  C   UNL     1      16.905  31.205   8.732  0.00  0.00    +0.013 A 
ATOM     14  C   UNL     1      16.813  30.422   7.585  0.00  0.00    +0.024 A 
ATOM     15  C   UNL     1      16.426  33.354   9.901  0.00  0.00    +0.039 A 
ATOM     16  C   UNL     1      15.859  34.635   9.828  0.00  0.00    +0.024 A 
ATOM     17  C   UNL     1      15.245  35.070   8.659  0.00  0.00    +0.004 A 
ATOM     18  C   UNL     1      15.194  34.226   7.550  0.00  0.00    +0.028 A 
ENDBRANCH   1  15
BRANCH   4  19
ATOM     19  C   UNL     1      19.078  33.942  14.022  0.00  0.00    +0.136 C 
BRANCH  19  20
ATOM     20  C   UNL     1      19.820  33.847  15.365  0.00  0.00    +0.086 C 
BRANCH  20  21
ATOM     21  C   UNL     1      21.309  33.653  15.205  0.00  0.00    -0.041 A 
ATOM     22  C   UNL     1      21.848  33.232  13.975  0.00  0.00    +0.027 A 
ATOM     23  C   UNL     1      23.222  32.979  13.823  0.00  0.00    +0.038 A 
ATOM     24  C   UNL     1      24.045  33.160  14.939  0.00  0.00    +0.023 A 
ATOM     25  C   UNL     1      23.527  33.605  16.159  0.00  0.00    +0.002 A 
ATOM     26  C   UNL     1      22.167  33.860  16.290  0.00  0.00    +0.004 A 
BRANCH  23  27
ATOM     27  N   UNL     1      23.752  32.576  12.572  0.00  0.00    -0.254 N 
ATOM     28  C   UNL     1      23.930  33.470  11.445  0.00  0.00    +0.134 C 
ATOM     29  C   UNL     1      24.763  32.676  10.449  0.00  0.00    +0.125 C 
ATOM     30  N   UNL     1      24.682  31.333  10.932  0.00  0.00    -0.297 N 
ATOM     31  C   UNL     1      24.155  31.275  12.213  0.00  0.00    +0.307 C 
ATOM     32  O   UNL     1      24.071  30.235  12.844  0.00  0.00    -0.252 OA
ATOM     33  H   UNL     1      25.067  30.504  10.496  0.00  0.00    +0.150 HD
ENDBRANCH  23  27
ENDBRANCH  20  21
ENDBRANCH  19  20
ENDBRANCH   4  19
TORSDOF 5
ENDMDL
MODEL 4
REMARK minimizedAffinity -10.3271675
REMARK minimizedRMSD -1
REMARK  Name = 
REMARK  6 active torsions:
REMARK  status: ('A' for Active; 'I' for Inactive)
REMARK    1  A    between atoms: C_1  and  C_2
REMARK    2  A    between atoms: C_8  and  N_12
REMARK    3  A    between atoms: N_15  and  C_18
REMARK    4  A    between atoms: C_18  and  C_19
REMARK    5  A    between atoms: C_19  and  C_20
REMARK    6  A    between atoms: C_22  and  N_26
REMARK                            x       y       z     vdW  Elec       q    Type
REMARK                         _______ _______ _______ _____ _____    ______ ____
ROOT
ATOM      1  N   UNL     1      18.787  33.751  15.256  0.00  0.00    -0.319 N 
ATOM      2  C   UNL     1      17.628  32.856  15.130  0.00  0.00    +0.156 C 
ATOM      3  C   UNL     1      17.970  31.663  14.213  0.00  0.00    +0.150 C 
ATOM      4  N   UNL     1      18.538  32.127  12.865  0.00  0.00    +0.238 N 
ATOM      5  C   UNL     1      19.754  33.026  13.099  0.00  0.00    +0.150 C 
ATOM      6  C   UNL     1      19.422  34.220  14.016  0.00  0.00    +0.156 C 
ATOM      7  H   UNL     1      18.892  31.270  12.415  0.00  0.00    +0.203 HD
ENDROOT
BRANCH   1  15
ATOM      8  C   UNL     1      22.404  35.050  20.577  0.00  0.00    +0.065 C 
ATOM      9  C   UNL     1      21.453  34.919  19.425  0.00  0.00    +0.039 A 
ATOM     10  N   UNL     1      20.427  35.800  19.365  0.00  0.00    -0.252 NA
ATOM     11  C   UNL     1      19.553  35.715  18.348  0.00  0.00    +0.073 A 
ATOM     12  C   UNL     1      19.653  34.744  17.329  0.00  0.00    +0.021 A 
ATOM     13  C   UNL     1      20.731  33.844  17.423  0.00  0.00    +0.013 A 
ATOM     14  C   UNL     1      21.638  33.929  18.475  0.00  0.00    +0.024 A 
ATOM     15  C   UNL     1      18.693  34.711  16.277  0.00  0.00    +0.039 A 
ATOM     16  C   UNL     1      17.654  35.652  16.273  0.00  0.00    +0.024 A 
ATOM     17  C   UNL     1      17.562  36.607  17.280  0.00  0.00    +0.004 A 
ATOM     18  C   UNL     1      18.510  36.627  18.302  0.00  0.00    +0.028 A 
ENDBRANCH   1  15
BRANCH   4  19
ATOM     19  C   UNL     1      17.478  32.692  11.940  0.00  0.00    +0.136 C 
BRANCH  19  20
ATOM     20  C   UNL     1      18.044  33.122  10.577  0.00  0.00    +0.086 C 
BRANCH  20  21
ATOM     21  C   UNL     1      17.119  32.807   9.427  0.00  0.00    -0.041 A 
ATOM     22  C   UNL     1      17.208  31.575   8.752  0.00  0.00    +0.027 A 
ATOM     23  C   UNL     1      16.404  31.288   7.636  0.00  0.00    +0.038 A 
ATOM     24  C   UNL     1      15.505  32.272   7.211  0.00  0.00    +0.023 A 
ATOM     25  C   UNL     1      15.386  33.489   7.889  0.00  0.00    +0.002 A 
ATOM     26  C   UNL     1      16.182  33.753   8.997  0.00  0.00    +0.004 A 
BRANCH  23  27
ATOM     27  N   UNL     1      16.491  30.035   6.980  0.00  0.00    -0.254 N 
ATOM     28  C   UNL     1      15.465  29.014   7.054  0.00  0.00    +0.134 C 
ATOM     29  C   UNL     1      15.862  27.991   5.998  0.00  0.00    +0.125 C 
ATOM     30  N   UNL     1      17.214  28.334   5.683  0.00  0.00    -0.297 N 
ATOM     31  C   UNL     1      17.567  29.573   6.197  0.00  0.00    +0.307 C 
ATOM     32  O   UNL     1      18.648  30.092   5.980  0.00  0.00    -0.252 OA
ATOM     33  H   UNL     1      17.838  27.840   5.058  0.00  0.00    +0.150 HD
ENDBRANCH  23  27
ENDBRANCH  20  21
ENDBRANCH  19  20
ENDBRANCH   4  19
TORSDOF 5
ENDMDL
MODEL 5
REMARK minimizedAffinity -10.2854357
REMARK minimizedRMSD -1
REMARK  Name = 
REMARK  6 active torsions:
REMARK  status: ('A' for Active; 'I' for Inactive)
REMARK    1  A    between atoms: C_1  and  C_2
REMARK    2  A    between atoms: C_8  and  N_12
REMARK    3  A    between atoms: N_15  and  C_18
REMARK    4  A    between atoms: C_18  and  C_19
REMARK    5  A    between atoms: C_19  and  C_20
REMARK    6  A    between atoms: C_22  and  N_26
REMARK                            x       y       z     vdW  Elec       q    Type
REMARK                         _______ _______ _______ _____ _____    ______ ____
ROOT
ATOM      1  N   UNL     1      19.206  33.934  14.609  0.00  0.00    -0.319 N 
ATOM      2  C   UNL     1      18.121  34.913  14.459  0.00  0.00    +0.156 C 
ATOM      3  C   UNL     1      16.763  34.191  14.333  0.00  0.00    +0.150 C 
ATOM      4  N   UNL     1      16.786  33.125  13.230  0.00  0.00    +0.238 N 
ATOM      5  C   UNL     1      17.927  32.139  13.489  0.00  0.00    +0.150 C 
ATOM      6  C   UNL     1      19.289  32.852  13.619  0.00  0.00    +0.156 C 
ATOM      7  H   UNL     1      15.910  32.595  13.352  0.00  0.00    +0.203 HD
ENDROOT
BRANCH   1  15
ATOM      8  C   UNL     1      22.931  33.160  19.958  0.00  0.00    +0.065 C 
ATOM      9  C   UNL     1      22.235  33.473  18.668  0.00  0.00    +0.039 A 
ATOM     10  N   UNL     1      22.850  34.335  17.825  0.00  0.00    -0.252 NA
ATOM     11  C   UNL     1      22.257  34.641  16.658  0.00  0.00    +0.073 A 
ATOM     12  C   UNL     1      21.013  34.103  16.264  0.00  0.00    +0.021 A 
ATOM     13  C   UNL     1      20.401  33.211  17.165  0.00  0.00    +0.013 A 
ATOM     14  C   UNL     1      21.013  32.893  18.374  0.00  0.00    +0.024 A 
ATOM     15  C   UNL     1      20.441  34.468  15.012  0.00  0.00    +0.039 A 
ATOM     16  C   UNL     1      21.129  35.367  14.184  0.00  0.00    +0.024 A 
ATOM     17  C   UNL     1      22.355  35.893  14.578  0.00  0.00    +0.004 A 
ATOM     18  C   UNL     1      22.902  35.524  15.807  0.00  0.00    +0.028 A 
ENDBRANCH   1  15
BRANCH   4  19
ATOM     19  C   UNL     1      16.740  33.716  11.834  0.00  0.00    +0.136 C 
BRANCH  19  20
ATOM     20  C   UNL     1      17.568  32.912  10.819  0.00  0.00    +0.086 C 
BRANCH  20  21
ATOM     21  C   UNL     1      16.851  32.701   9.507  0.00  0.00    -0.041 A 
ATOM     22  C   UNL     1      16.963  31.479   8.818  0.00  0.00    +0.027 A 
ATOM     23  C   UNL     1      16.361  31.286   7.562  0.00  0.00    +0.038 A 
ATOM     24  C   UNL     1      15.643  32.353   7.013  0.00  0.00    +0.023 A 
ATOM     25  C   UNL     1      15.501  33.563   7.700  0.00  0.00    +0.002 A 
ATOM     26  C   UNL     1      16.094  33.734   8.944  0.00  0.00    +0.004 A 
BRANCH  23  27
ATOM     27  N   UNL     1      16.464  30.043   6.891  0.00  0.00    -0.254 N 
ATOM     28  C   UNL     1      15.431  29.026   6.913  0.00  0.00    +0.134 C 
ATOM     29  C   UNL     1      15.859  28.018   5.856  0.00  0.00    +0.125 C 
ATOM     30  N   UNL     1      17.222  28.358   5.593  0.00  0.00    -0.297 N 
ATOM     31  C   UNL     1      17.564  29.586   6.138  0.00  0.00    +0.307 C 
ATOM     32  O   UNL     1      18.654  30.102   5.967  0.00  0.00    -0.252 OA
ATOM     33  H   UNL     1      17.865  27.870   4.982  0.00  0.00    +0.150 HD
ENDBRANCH  23  27
ENDBRANCH  20  21
ENDBRANCH  19  20
ENDBRANCH   4  19
TORSDOF 5
ENDMDL
