REMARK  Name = =
REMARK  3 active torsions:
REMARK  status: ('A' for Active; 'I' for Inactive)
REMARK    1  A    between atoms: N_1  and  C_2
REMARK    2  A    between atoms: N_1  and  C_13
REMARK    3  A    between atoms: C_13  and  C_17
REMARK                            x       y       z     vdW  Elec       q    Type
REMARK                         _______ _______ _______ _____ _____    ______ ____
ROOT
ATOM      1  C   UNL     1      16.303  31.555   7.777  0.00  0.00    +0.148 C 
ATOM      2  N   UNL     1      15.014  31.229   8.007  0.00  0.00    -0.219 NA
ATOM      3  C   UNL     1      14.513  30.103   7.455  0.00  0.00    +0.225 C 
ATOM      4  N   UNL     1      15.139  29.216   6.674  0.00  0.00    -0.214 NA
ATOM      5  C   UNL     1      16.422  29.549   6.451  0.00  0.00    +0.183 C 
ATOM      6  C   UNL     1      17.016  30.683   6.974  0.00  0.00    +0.125 C 
ATOM      7  N   UNL     1      18.303  30.637   6.510  0.00  0.00    -0.340 N 
ATOM      8  C   UNL     1      18.431  29.509   5.747  0.00  0.00    +0.199 C 
ATOM      9  N   UNL     1      17.307  28.830   5.692  0.00  0.00    -0.216 NA
ATOM     10  H   UNL     1      19.029  31.312   6.699  0.00  0.00    +0.167 HD
ENDROOT
BRANCH   1  11
ATOM     11  N   UNL     1      16.859  32.684   8.323  0.00  0.00    -0.323 N 
ATOM     12  H   UNL     1      17.812  32.949   8.138  0.00  0.00    +0.148 HD
BRANCH  11  13
ATOM     13  C   UNL     1      16.057  33.543   9.166  0.00  0.00    +0.138 C 
BRANCH  13  17
ATOM     14  C   UNL     1      17.474  33.219  13.230  0.00  0.00    +0.000 C 
ATOM     15  C   UNL     1      16.159  33.604  12.977  0.00  0.00    +0.000 C 
ATOM     16  C   UNL     1      15.704  33.715  11.662  0.00  0.00    +0.005 C 
ATOM     17  C   UNL     1      16.565  33.447  10.586  0.00  0.00    -0.030 C 
ATOM     18  C   UNL     1      17.883  33.049  10.853  0.00  0.00    +0.005 C 
ATOM     19  C   UNL     1      18.335  32.941  12.169  0.00  0.00    +0.000 C 
ENDBRANCH  13  17
ENDBRANCH  11  13
ENDBRANCH   1  11
TORSDOF 3
