REMARK  Name = =
REMARK  0 active torsions:
REMARK  status: ('A' for Active; 'I' for Inactive)
REMARK                            x       y       z     vdW  Elec       q    Type
REMARK                         _______ _______ _______ _____ _____    ______ ____
ROOT
ATOM      1  C   UNL     1      13.591  28.166   6.642  0.00  0.00    +0.044 C 
ATOM      2  C   UNL     1      14.606  29.272   6.772  0.00  0.00    -0.045 C 
ATOM      3  C   UNL     1      14.186  30.515   7.289  0.00  0.00    +0.031 C 
ATOM      4  C   UNL     1      15.146  31.522   7.401  0.00  0.00    +0.066 C 
ATOM      5  C   UNL     1      16.474  31.353   7.034  0.00  0.00    +0.089 C 
ATOM      6  C   UNL     1      16.888  30.116   6.523  0.00  0.00    +0.033 C 
ATOM      7  C   UNL     1      15.952  29.069   6.394  0.00  0.00    -0.045 C 
ATOM      8  C   UNL     1      16.419  27.749   5.840  0.00  0.00    +0.044 C 
ATOM      9  N   UNL     1      17.194  32.504   7.250  0.00  0.00    -0.236 NA
ATOM     10  C   UNL     1      16.329  33.362   7.740  0.00  0.00    +0.197 C 
ATOM     11  N   UNL     1      15.082  32.816   7.850  0.00  0.00    -0.344 N 
ATOM     12  H   UNL     1      14.259  33.283   8.201  0.00  0.00    +0.167 HD
ENDROOT
TORSDOF 0
