REMARK  Name = =
REMARK  5 active torsions:
REMARK  status: ('A' for Active; 'I' for Inactive)
REMARK    1  A    between atoms: N_1  and  C_15
REMARK    2  A    between atoms: N_4  and  C_19
REMARK    3  A    between atoms: C_19  and  C_20
REMARK    4  A    between atoms: C_20  and  C_21
REMARK    5  A    between atoms: C_23  and  N_27
REMARK                            x       y       z     vdW  Elec       q    Type
REMARK                         _______ _______ _______ _____ _____    ______ ____
ROOT
ATOM      1  N   UNL     1      17.850  33.612  14.742  0.00  0.00    -0.319 N 
ATOM      2  C   UNL     1      17.498  32.189  14.641  0.00  0.00    +0.156 C 
ATOM      3  C   UNL     1      18.676  31.387  14.049  0.00  0.00    +0.150 C 
ATOM      4  N   UNL     1      19.169  31.994  12.728  0.00  0.00    +0.238 N 
ATOM      5  C   UNL     1      19.538  33.464  12.941  0.00  0.00    +0.150 C 
ATOM      6  C   UNL     1      18.366  34.272  13.536  0.00  0.00    +0.156 C 
ATOM      7  H   UNL     1      20.050  31.501  12.520  0.00  0.00    +0.203 HD
ENDROOT
BRANCH   1  15
ATOM      8  C   UNL     1      18.762  38.430  19.106  0.00  0.00    +0.065 C 
ATOM      9  C   UNL     1      18.342  37.355  18.149  0.00  0.00    +0.039 C 
ATOM     10  N   UNL     1      17.014  37.122  18.022  0.00  0.00    -0.252 NA
ATOM     11  C   UNL     1      16.598  36.166  17.174  0.00  0.00    +0.073 C 
ATOM     12  C   UNL     1      17.485  35.385  16.401  0.00  0.00    +0.021 C 
ATOM     13  C   UNL     1      18.857  35.654  16.558  0.00  0.00    +0.013 C 
ATOM     14  C   UNL     1      19.292  36.643  17.436  0.00  0.00    +0.024 C 
ATOM     15  C   UNL     1      16.976  34.390  15.519  0.00  0.00    +0.039 C 
ATOM     16  C   UNL     1      15.589  34.198  15.434  0.00  0.00    +0.024 C 
ATOM     17  C   UNL     1      14.722  34.971  16.198  0.00  0.00    +0.004 C 
ATOM     18  C   UNL     1      15.235  35.943  17.056  0.00  0.00    +0.028 C 
ENDBRANCH   1  15
BRANCH   4  19
ATOM     19  C   UNL     1      18.236  31.717  11.565  0.00  0.00    +0.136 C 
BRANCH  19  20
ATOM     20  C   UNL     1      18.163  32.887  10.570  0.00  0.00    +0.086 C 
BRANCH  20  21
ATOM     21  C   UNL     1      17.222  32.623   9.418  0.00  0.00    -0.041 C 
ATOM     22  C   UNL     1      17.276  31.406   8.714  0.00  0.00    +0.027 C 
ATOM     23  C   UNL     1      16.458  31.167   7.596  0.00  0.00    +0.038 C 
ATOM     24  C   UNL     1      15.583  32.183   7.201  0.00  0.00    +0.023 C 
ATOM     25  C   UNL     1      15.498  33.386   7.908  0.00  0.00    +0.002 C 
ATOM     26  C   UNL     1      16.308  33.603   9.017  0.00  0.00    +0.004 C 
BRANCH  23  27
ATOM     27  N   UNL     1      16.509  29.929   6.910  0.00  0.00    -0.254 N 
ATOM     28  C   UNL     1      15.456  28.934   6.962  0.00  0.00    +0.134 C 
ATOM     29  C   UNL     1      15.822  27.927   5.880  0.00  0.00    +0.125 C 
ATOM     30  N   UNL     1      17.182  28.240   5.569  0.00  0.00    -0.297 N 
ATOM     31  C   UNL     1      17.570  29.456   6.113  0.00  0.00    +0.307 C 
ATOM     32  O   UNL     1      18.664  29.950   5.905  0.00  0.00    -0.252 OA
ATOM     33  H   UNL     1      17.790  27.744   4.931  0.00  0.00    +0.150 HD
ENDBRANCH  23  27
ENDBRANCH  20  21
ENDBRANCH  19  20
ENDBRANCH   4  19
TORSDOF 5
