REMARK  Name = =
REMARK  0 active torsions:
REMARK  status: ('A' for Active; 'I' for Inactive)
REMARK                            x       y       z     vdW  Elec       q    Type
REMARK                         _______ _______ _______ _____ _____    ______ ____
ROOT
ATOM      1  C   UNL     1      16.401  27.769   5.840  0.00  0.00    +0.044 C 
ATOM      2  C   UNL     1      15.973  29.105   6.392  0.00  0.00    -0.045 C 
ATOM      3  C   UNL     1      16.933  30.133   6.486  0.00  0.00    +0.031 C 
ATOM      4  C   UNL     1      16.510  31.362   6.999  0.00  0.00    +0.066 C 
ATOM      5  C   UNL     1      15.208  31.608   7.411  0.00  0.00    +0.089 C 
ATOM      6  C   UNL     1      14.257  30.584   7.314  0.00  0.00    +0.033 C 
ATOM      7  C   UNL     1      14.638  29.328   6.799  0.00  0.00    -0.045 C 
ATOM      8  C   UNL     1      13.601  28.240   6.707  0.00  0.00    +0.044 C 
ATOM      9  N   UNL     1      15.073  32.896   7.871  0.00  0.00    -0.236 NA
ATOM     10  C   UNL     1      16.266  33.431   7.745  0.00  0.00    +0.197 C 
ATOM     11  N   UNL     1      17.165  32.546   7.223  0.00  0.00    -0.344 N 
ATOM     12  H   UNL     1      18.139  32.731   7.036  0.00  0.00    +0.167 HD
ENDROOT
TORSDOF 0
