REMARK  Name = =
REMARK  7 active torsions:
REMARK  status: ('A' for Active; 'I' for Inactive)
REMARK    1  A    between atoms: C_1  and  O_36
REMARK    2  A    between atoms: C_2  and  N_21
REMARK    3  A    between atoms: C_10  and  N_11
REMARK    4  A    between atoms: N_11  and  C_13
REMARK    5  A    between atoms: C_22  and  C_25
REMARK    6  A    between atoms: C_26  and  C_27
REMARK    7  A    between atoms: C_27  and  N_28
REMARK                            x       y       z     vdW  Elec       q    Type
REMARK                         _______ _______ _______ _____ _____    ______ ____
ROOT
ATOM      1  C   UNL     1      20.455  33.103  16.862  0.00  0.00    +0.143 C 
ATOM      2  C   UNL     1      19.104  33.171  16.489  0.00  0.00    +0.077 C 
ATOM      3  C   UNL     1      18.760  32.970  15.154  0.00  0.00    +0.040 C 
ATOM      4  C   UNL     1      19.754  32.799  14.161  0.00  0.00    +0.042 C 
ATOM      5  C   UNL     1      21.105  32.817  14.529  0.00  0.00    +0.080 C 
ATOM      6  C   UNL     1      21.433  32.944  15.875  0.00  0.00    +0.076 C 
ATOM      7  N   UNL     1      22.088  32.714  13.634  0.00  0.00    -0.235 NA
ATOM      8  C   UNL     1      21.732  32.598  12.349  0.00  0.00    +0.223 C 
ATOM      9  N   UNL     1      20.480  32.567  11.880  0.00  0.00    -0.220 NA
ATOM     10  C   UNL     1      19.494  32.633  12.787  0.00  0.00    +0.134 C 
ENDROOT
BRANCH   2  11
ATOM     11  N   UNL     1      18.147  33.386  17.502  0.00  0.00    -0.279 N 
ATOM     12  C   UNL     1      17.465  34.501  17.891  0.00  0.00    +0.241 C 
ATOM     13  O   UNL     1      16.475  34.430  18.612  0.00  0.00    -0.271 OA
ATOM     14  H   UNL     1      17.924  32.560  18.056  0.00  0.00    +0.155 HD
BRANCH  12  15
ATOM     15  C   UNL     1      18.030  35.833  17.535  0.00  0.00    +0.068 C 
ATOM     16  C   UNL     1      19.038  36.347  18.259  0.00  0.00    +0.028 C 
BRANCH  16  17
ATOM     17  C   UNL     1      19.830  37.599  18.087  0.00  0.00    +0.160 C 
BRANCH  17  18
ATOM     18  N   UNL     1      19.697  38.730  19.077  0.00  0.00    +0.238 N 
ATOM     19  C   UNL     1      18.273  39.075  19.439  0.00  0.00    +0.131 C 
ATOM     20  C   UNL     1      18.255  40.397  20.196  0.00  0.00    +0.051 C 
ATOM     21  C   UNL     1      19.176  40.363  21.411  0.00  0.00    +0.010 C 
ATOM     22  C   UNL     1      20.596  39.967  21.019  0.00  0.00    +0.051 C 
ATOM     23  C   UNL     1      20.625  38.645  20.263  0.00  0.00    +0.131 C 
ATOM     24  H   UNL     1      20.033  39.543  18.542  0.00  0.00    +0.204 HD
ENDBRANCH  17  18
ENDBRANCH  16  17
ENDBRANCH  12  15
ENDBRANCH   2  11
BRANCH  10  25
ATOM     25  N   UNL     1      18.147  32.532  12.355  0.00  0.00    -0.299 N 
ATOM     26  H   UNL     1      17.671  31.798  12.869  0.00  0.00    +0.154 HD
BRANCH  25  27
ATOM     27  C   UNL     1      17.565  32.824  11.108  0.00  0.00    +0.034 C 
ATOM     28  C   UNL     1      17.678  31.878  10.075  0.00  0.00    +0.046 C 
ATOM     29  C   UNL     1      17.034  32.072   8.850  0.00  0.00    +0.078 C 
ATOM     30  C   UNL     1      16.265  33.211   8.643  0.00  0.00    +0.142 C 
ATOM     31  C   UNL     1      16.128  34.154   9.653  0.00  0.00    +0.041 C 
ATOM     32  C   UNL     1      16.765  33.952  10.882  0.00  0.00    +0.026 C 
ATOM     33  F   UNL     1      15.619  33.404   7.485  0.00  0.00    -0.204 F 
ATOM     34 CL   UNL     1      17.166  30.864   7.631  0.00  0.00    -0.081 Cl
ENDBRANCH  25  27
ENDBRANCH  10  25
BRANCH   1  36
ATOM     35  C   UNL     1      21.917  33.890  18.579  0.00  0.00    +0.277 C 
ATOM     36  O   UNL     1      20.704  33.243  18.205  0.00  0.00    -0.493 OA
ENDBRANCH   1  36
TORSDOF 7
