REMARK  Name = =
REMARK  6 active torsions:
REMARK  status: ('A' for Active; 'I' for Inactive)
REMARK    1  A    between atoms: C_1  and  O_36
REMARK    2  A    between atoms: C_2  and  N_21
REMARK    3  A    between atoms: N_11  and  C_13
REMARK    4  A    between atoms: C_22  and  C_25
REMARK    5  A    between atoms: C_26  and  C_27
REMARK    6  A    between atoms: C_27  and  N_28
REMARK                            x       y       z     vdW  Elec       q    Type
REMARK                         _______ _______ _______ _____ _____    ______ ____
ROOT
ATOM      1  C   UNL     1      15.707  34.615  16.581  0.00  0.00    +0.143 C 
ATOM      2  C   UNL     1      15.999  34.316  15.243  0.00  0.00    +0.077 C 
ATOM      3  C   UNL     1      17.309  33.999  14.891  0.00  0.00    +0.040 C 
ATOM      4  C   UNL     1      18.359  34.068  15.839  0.00  0.00    +0.042 C 
ATOM      5  C   UNL     1      18.074  34.448  17.154  0.00  0.00    +0.080 C 
ATOM      6  C   UNL     1      16.751  34.693  17.511  0.00  0.00    +0.076 C 
ATOM      7  N   UNL     1      19.027  34.582  18.078  0.00  0.00    -0.235 NA
ATOM      8  C   UNL     1      20.285  34.342  17.694  0.00  0.00    +0.223 C 
ATOM      9  N   UNL     1      20.677  33.973  16.469  0.00  0.00    -0.220 NA
ATOM     10  C   UNL     1      19.712  33.804  15.553  0.00  0.00    +0.134 C 
ATOM     11  N   UNL     1      20.060  33.342  14.259  0.00  0.00    -0.299 N 
ATOM     12  H   UNL     1      19.505  32.526  14.019  0.00  0.00    +0.154 HD
ENDROOT
BRANCH  11  13
ATOM     13  C   UNL     1      21.272  33.432  13.551  0.00  0.00    +0.034 C 
ATOM     14  C   UNL     1      22.059  32.276  13.415  0.00  0.00    +0.046 C 
ATOM     15  C   UNL     1      23.225  32.288  12.644  0.00  0.00    +0.078 C 
ATOM     16  C   UNL     1      23.615  33.452  11.995  0.00  0.00    +0.142 C 
ATOM     17  C   UNL     1      22.845  34.603  12.101  0.00  0.00    +0.041 C 
ATOM     18  C   UNL     1      21.674  34.587  12.864  0.00  0.00    +0.026 C 
ATOM     19  F   UNL     1      24.718  33.478  11.233  0.00  0.00    -0.204 F 
ATOM     20 CL   UNL     1      24.134  30.837  12.477  0.00  0.00    -0.081 Cl
ENDBRANCH  11  13
BRANCH   2  21
ATOM     21  N   UNL     1      14.935  34.298  14.318  0.00  0.00    -0.279 N 
ATOM     22  C   UNL     1      14.730  33.568  13.184  0.00  0.00    +0.241 C 
ATOM     23  O   UNL     1      13.624  33.484  12.659  0.00  0.00    -0.271 OA
ATOM     24  H   UNL     1      14.179  34.949  14.527  0.00  0.00    +0.155 HD
BRANCH  22  25
ATOM     25  C   UNL     1      15.919  32.980  12.505  0.00  0.00    +0.068 C 
ATOM     26  C   UNL     1      15.907  32.797  11.174  0.00  0.00    +0.028 C 
BRANCH  26  27
ATOM     27  C   UNL     1      16.966  32.299  10.247  0.00  0.00    +0.160 C 
BRANCH  27  28
ATOM     28  N   UNL     1      16.587  31.581   8.974  0.00  0.00    +0.238 N 
ATOM     29  C   UNL     1      15.195  31.894   8.478  0.00  0.00    +0.131 C 
ATOM     30  C   UNL     1      14.822  30.906   7.381  0.00  0.00    +0.051 C 
ATOM     31  C   UNL     1      15.854  30.897   6.257  0.00  0.00    +0.010 C 
ATOM     32  C   UNL     1      17.256  30.624   6.794  0.00  0.00    +0.051 C 
ATOM     33  C   UNL     1      17.641  31.603   7.896  0.00  0.00    +0.131 C 
ATOM     34  H   UNL     1      16.542  30.597   9.272  0.00  0.00    +0.204 HD
ENDBRANCH  27  28
ENDBRANCH  26  27
ENDBRANCH  22  25
ENDBRANCH   2  21
BRANCH   1  36
ATOM     35  C   UNL     1      14.012  36.194  17.164  0.00  0.00    +0.277 C 
ATOM     36  O   UNL     1      14.384  34.853  16.859  0.00  0.00    -0.493 OA
ENDBRANCH   1  36
TORSDOF 6
