REMARK  Name = =
REMARK  1 active torsions:
REMARK  status: ('A' for Active; 'I' for Inactive)
REMARK    1  A    between atoms: C_7  and  N_15
REMARK                            x       y       z     vdW  Elec       q    Type
REMARK                         _______ _______ _______ _____ _____    ______ ____
ROOT
ATOM      1  C   UNL     1      18.727  32.513  11.398  0.00  0.00    +0.001 C 
ATOM      2  C   UNL     1      19.697  32.957  12.283  0.00  0.00    +0.002 C 
ATOM      3  C   UNL     1      19.311  33.632  13.440  0.00  0.00    +0.028 C 
ATOM      4  C   UNL     1      17.979  33.880  13.742  0.00  0.00    +0.073 A 
ATOM      5  C   UNL     1      16.976  33.438  12.856  0.00  0.00    +0.022 A 
ATOM      6  C   UNL     1      17.381  32.750  11.682  0.00  0.00    +0.012 C 
ATOM      7  C   UNL     1      15.625  33.721  13.206  0.00  0.00    +0.043 A 
ATOM      8  C   UNL     1      15.346  34.411  14.421  0.00  0.00    +0.022 A 
ATOM      9  C   UNL     1      14.045  34.743  14.885  0.00  0.00    +0.012 C 
ATOM     10  C   UNL     1      13.847  35.429  16.084  0.00  0.00    +0.001 C 
ATOM     11  C   UNL     1      14.943  35.797  16.847  0.00  0.00    +0.002 C 
ATOM     12  C   UNL     1      16.226  35.475  16.403  0.00  0.00    +0.028 C 
ATOM     13  C   UNL     1      16.447  34.794  15.213  0.00  0.00    +0.073 A 
ATOM     14  N   UNL     1      17.717  34.536  14.878  0.00  0.00    -0.247 NA
ENDROOT
BRANCH   7  15
ATOM     15  N   UNL     1      14.574  33.269  12.394  0.00  0.00    -0.357 N 
ATOM     16  H   UNL     1      14.755  32.839  11.500  0.00  0.00    +0.142 HD
ATOM     17  H   UNL     1      13.618  33.518  12.592  0.00  0.00    +0.142 HD
ENDBRANCH   7  15
TORSDOF 1
