MODEL 1
REMARK minimizedAffinity -7.79686594
REMARK minimizedRMSD -1
REMARK  Name = 
REMARK  2 active torsions:
REMARK  status: ('A' for Active; 'I' for Inactive)
REMARK    1  A    between atoms: C_1  and  N_2
REMARK    2  A    between atoms: C_7  and  C_9
REMARK                            x       y       z     vdW  Elec       q    Type
REMARK                         _______ _______ _______ _____ _____    ______ ____
ROOT
ATOM      1  C   UNL     1      16.347  33.940  15.476  0.00  0.00    +0.152 C 
ATOM      2  N   UNL     1      17.464  33.332  14.797  0.00  0.00    -0.314 N 
ATOM      3  C   UNL     1      17.613  33.188  13.440  0.00  0.00    +0.089 A 
ATOM      4  C   UNL     1      18.836  32.539  13.308  0.00  0.00    +0.180 A 
ATOM      5  N   UNL     1      19.370  32.195  12.116  0.00  0.00    -0.234 NA
ATOM      6  C   UNL     1      18.611  32.533  11.048  0.00  0.00    +0.121 A 
ATOM      7  C   UNL     1      17.372  33.184  11.072  0.00  0.00    +0.002 A 
ATOM      8  C   UNL     1      16.845  33.532  12.324  0.00  0.00    +0.039 A 
ATOM      9  N   UNL     1      19.411  32.300  14.523  0.00  0.00    -0.195 NA
ATOM     10  C   UNL     1      18.571  32.783  15.403  0.00  0.00    +0.195 A 
ATOM     11  N   UNL     1      18.737  32.760  16.730  0.00  0.00    -0.329 N 
ATOM     12  H   UNL     1      18.092  33.128  17.415  0.00  0.00    +0.145 HD
ATOM     13  H   UNL     1      19.583  32.336  17.096  0.00  0.00    +0.145 HD
ENDROOT
BRANCH   7  14
ATOM     14  C   UNL     1      16.645  33.489   9.832  0.00  0.00    -0.016 A 
ATOM     15  C   UNL     1      16.740  32.642   8.715  0.00  0.00    +0.008 A 
ATOM     16  C   UNL     1      16.048  32.931   7.534  0.00  0.00    +0.001 A 
ATOM     17  C   UNL     1      15.255  34.071   7.453  0.00  0.00    +0.000 A 
ATOM     18  C   UNL     1      15.150  34.925   8.549  0.00  0.00    +0.001 A 
ATOM     19  C   UNL     1      15.839  34.634   9.729  0.00  0.00    +0.008 A 
ENDBRANCH   7  14
TORSDOF 1
ENDMDL
MODEL 2
REMARK minimizedAffinity -7.62434196
REMARK minimizedRMSD -1
REMARK  Name = 
REMARK  2 active torsions:
REMARK  status: ('A' for Active; 'I' for Inactive)
REMARK    1  A    between atoms: C_1  and  N_2
REMARK    2  A    between atoms: C_7  and  C_9
REMARK                            x       y       z     vdW  Elec       q    Type
REMARK                         _______ _______ _______ _____ _____    ______ ____
ROOT
ATOM      1  C   UNL     1      13.471  34.390  14.958  0.00  0.00    +0.152 C 
ATOM      2  N   UNL     1      14.905  34.246  14.991  0.00  0.00    -0.314 N 
ATOM      3  C   UNL     1      15.721  33.981  13.920  0.00  0.00    +0.089 A 
ATOM      4  C   UNL     1      16.994  33.930  14.479  0.00  0.00    +0.180 A 
ATOM      5  N   UNL     1      18.112  33.684  13.762  0.00  0.00    -0.234 NA
ATOM      6  C   UNL     1      17.893  33.486  12.440  0.00  0.00    +0.121 A 
ATOM      7  C   UNL     1      16.658  33.516  11.782  0.00  0.00    +0.002 A 
ATOM      8  C   UNL     1      15.517  33.778  12.552  0.00  0.00    +0.039 A 
ATOM      9  N   UNL     1      16.960  34.155  15.825  0.00  0.00    -0.195 NA
ATOM     10  C   UNL     1      15.697  34.342  16.112  0.00  0.00    +0.195 A 
ATOM     11  N   UNL     1      15.205  34.594  17.330  0.00  0.00    -0.329 N 
ATOM     12  H   UNL     1      14.232  34.736  17.560  0.00  0.00    +0.145 HD
ATOM     13  H   UNL     1      15.859  34.649  18.105  0.00  0.00    +0.145 HD
ENDROOT
BRANCH   7  14
ATOM     14  C   UNL     1      16.559  33.278  10.336  0.00  0.00    -0.016 A 
ATOM     15  C   UNL     1      15.818  34.141   9.511  0.00  0.00    +0.008 A 
ATOM     16  C   UNL     1      15.723  33.915   8.135  0.00  0.00    +0.001 A 
ATOM     17  C   UNL     1      16.365  32.821   7.563  0.00  0.00    +0.000 A 
ATOM     18  C   UNL     1      17.103  31.951   8.364  0.00  0.00    +0.001 A 
ATOM     19  C   UNL     1      17.199  32.179   9.739  0.00  0.00    +0.008 A 
ENDBRANCH   7  14
TORSDOF 1
ENDMDL
MODEL 3
REMARK minimizedAffinity -7.6103344
REMARK minimizedRMSD -1
REMARK  Name = 
REMARK  2 active torsions:
REMARK  status: ('A' for Active; 'I' for Inactive)
REMARK    1  A    between atoms: C_1  and  N_2
REMARK    2  A    between atoms: C_7  and  C_9
REMARK                            x       y       z     vdW  Elec       q    Type
REMARK                         _______ _______ _______ _____ _____    ______ ____
ROOT
ATOM      1  C   UNL     1      21.494  32.879  12.725  0.00  0.00    +0.152 C 
ATOM      2  N   UNL     1      20.222  32.756  13.392  0.00  0.00    -0.314 N 
ATOM      3  C   UNL     1      18.984  32.868  12.811  0.00  0.00    +0.089 A 
ATOM      4  C   UNL     1      18.102  32.682  13.871  0.00  0.00    +0.180 A 
ATOM      5  N   UNL     1      16.759  32.719  13.737  0.00  0.00    -0.234 NA
ATOM      6  C   UNL     1      16.333  32.958  12.474  0.00  0.00    +0.121 A 
ATOM      7  C   UNL     1      17.133  33.159  11.343  0.00  0.00    +0.002 A 
ATOM      8  C   UNL     1      18.523  33.110  11.514  0.00  0.00    +0.039 A 
ATOM      9  N   UNL     1      18.767  32.462  15.043  0.00  0.00    -0.195 NA
ATOM     10  C   UNL     1      20.038  32.512  14.734  0.00  0.00    +0.195 A 
ATOM     11  N   UNL     1      21.054  32.351  15.589  0.00  0.00    -0.329 N 
ATOM     12  H   UNL     1      22.036  32.391  15.359  0.00  0.00    +0.145 HD
ATOM     13  H   UNL     1      20.830  32.174  16.564  0.00  0.00    +0.145 HD
ENDROOT
BRANCH   7  14
ATOM     14  C   UNL     1      16.539  33.416  10.024  0.00  0.00    -0.016 A 
ATOM     15  C   UNL     1      15.839  34.607   9.768  0.00  0.00    +0.008 A 
ATOM     16  C   UNL     1      15.274  34.853   8.514  0.00  0.00    +0.001 A 
ATOM     17  C   UNL     1      15.397  33.911   7.497  0.00  0.00    +0.000 A 
ATOM     18  C   UNL     1      16.086  32.722   7.731  0.00  0.00    +0.001 A 
ATOM     19  C   UNL     1      16.653  32.478   8.985  0.00  0.00    +0.008 A 
ENDBRANCH   7  14
TORSDOF 1
ENDMDL
MODEL 4
REMARK minimizedAffinity -7.53859997
REMARK minimizedRMSD -1
REMARK  Name = 
REMARK  2 active torsions:
REMARK  status: ('A' for Active; 'I' for Inactive)
REMARK    1  A    between atoms: C_1  and  N_2
REMARK    2  A    between atoms: C_7  and  C_9
REMARK                            x       y       z     vdW  Elec       q    Type
REMARK                         _______ _______ _______ _____ _____    ______ ____
ROOT
ATOM      1  C   UNL     1      21.507  32.717  15.135  0.00  0.00    +0.152 C 
ATOM      2  N   UNL     1      20.693  32.768  13.946  0.00  0.00    -0.314 N 
ATOM      3  C   UNL     1      19.403  33.231  13.862  0.00  0.00    +0.089 A 
ATOM      4  C   UNL     1      19.075  33.055  12.521  0.00  0.00    +0.180 A 
ATOM      5  N   UNL     1      17.873  33.383  12.000  0.00  0.00    -0.234 NA
ATOM      6  C   UNL     1      17.001  33.900  12.897  0.00  0.00    +0.121 A 
ATOM      7  C   UNL     1      17.230  34.117  14.261  0.00  0.00    +0.002 A 
ATOM      8  C   UNL     1      18.489  33.770  14.771  0.00  0.00    +0.039 A 
ATOM      9  N   UNL     1      20.114  32.515  11.817  0.00  0.00    -0.195 NA
ATOM     10  C   UNL     1      21.073  32.350  12.692  0.00  0.00    +0.195 A 
ATOM     11  N   UNL     1      22.283  31.840  12.432  0.00  0.00    -0.329 N 
ATOM     12  H   UNL     1      23.027  31.707  13.101  0.00  0.00    +0.145 HD
ATOM     13  H   UNL     1      22.484  31.556  11.478  0.00  0.00    +0.145 HD
ENDROOT
BRANCH   7  14
ATOM     14  C   UNL     1      16.189  34.682  15.129  0.00  0.00    -0.016 A 
ATOM     15  C   UNL     1      16.527  35.383  16.298  0.00  0.00    +0.008 A 
ATOM     16  C   UNL     1      15.537  35.922  17.126  0.00  0.00    +0.001 A 
ATOM     17  C   UNL     1      14.194  35.764  16.797  0.00  0.00    +0.000 A 
ATOM     18  C   UNL     1      13.837  35.070  15.643  0.00  0.00    +0.001 A 
ATOM     19  C   UNL     1      14.828  34.535  14.816  0.00  0.00    +0.008 A 
ENDBRANCH   7  14
TORSDOF 1
ENDMDL
MODEL 5
REMARK minimizedAffinity -7.47266579
REMARK minimizedRMSD -1
REMARK  Name = 
REMARK  2 active torsions:
REMARK  status: ('A' for Active; 'I' for Inactive)
REMARK    1  A    between atoms: C_1  and  N_2
REMARK    2  A    between atoms: C_7  and  C_9
REMARK                            x       y       z     vdW  Elec       q    Type
REMARK                         _______ _______ _______ _____ _____    ______ ____
ROOT
ATOM      1  C   UNL     1      15.104  34.110   7.803  0.00  0.00    +0.152 C 
ATOM      2  N   UNL     1      15.923  33.057   8.347  0.00  0.00    -0.314 N 
ATOM      3  C   UNL     1      16.414  32.986   9.627  0.00  0.00    +0.089 A 
ATOM      4  C   UNL     1      17.141  31.800   9.639  0.00  0.00    +0.180 A 
ATOM      5  N   UNL     1      17.804  31.343  10.723  0.00  0.00    -0.234 NA
ATOM      6  C   UNL     1      17.707  32.143  11.811  0.00  0.00    +0.121 A 
ATOM      7  C   UNL     1      17.005  33.351  11.904  0.00  0.00    +0.002 A 
ATOM      8  C   UNL     1      16.324  33.796  10.763  0.00  0.00    +0.039 A 
ATOM      9  N   UNL     1      17.094  31.172   8.426  0.00  0.00    -0.195 NA
ATOM     10  C   UNL     1      16.360  31.944   7.667  0.00  0.00    +0.195 A 
ATOM     11  N   UNL     1      16.054  31.710   6.385  0.00  0.00    -0.329 N 
ATOM     12  H   UNL     1      15.490  32.302   5.792  0.00  0.00    +0.145 HD
ATOM     13  H   UNL     1      16.416  30.863   5.957  0.00  0.00    +0.145 HD
ENDROOT
BRANCH   7  14
ATOM     14  C   UNL     1      16.987  34.128  13.151  0.00  0.00    -0.016 A 
ATOM     15  C   UNL     1      15.778  34.600  13.688  0.00  0.00    +0.008 A 
ATOM     16  C   UNL     1      15.759  35.340  14.874  0.00  0.00    +0.001 A 
ATOM     17  C   UNL     1      16.949  35.621  15.539  0.00  0.00    +0.000 A 
ATOM     18  C   UNL     1      18.159  35.164  15.021  0.00  0.00    +0.001 A 
ATOM     19  C   UNL     1      18.176  34.423  13.837  0.00  0.00    +0.008 A 
ENDBRANCH   7  14
TORSDOF 1
ENDMDL
