REMARK  Name = =
REMARK  9 active torsions:
REMARK  status: ('A' for Active; 'I' for Inactive)
REMARK    1  A    between atoms: N_1  and  C_2
REMARK    2  A    between atoms: N_1  and  C_26
REMARK    3  A    between atoms: C_4  and  C_10
REMARK    4  A    between atoms: C_12  and  O_24
REMARK    5  A    between atoms: C_13  and  N_16
REMARK    6  A    between atoms: N_19  and  C_22
REMARK    7  A    between atoms: C_26  and  C_27
REMARK    8  A    between atoms: C_26  and  C_33
REMARK    9  A    between atoms: C_33  and  C_35
REMARK                            x       y       z     vdW  Elec       q    Type
REMARK                         _______ _______ _______ _____ _____    ______ ____
ROOT
ATOM      1  C   UNL     1      16.733  32.449  11.485  0.00  0.00    +0.126 C 
ATOM      2  N   UNL     1      17.886  32.932  11.979  0.00  0.00    -0.213 NA
ATOM      3  C   UNL     1      17.829  33.678  13.099  0.00  0.00    +0.162 C 
ATOM      4  N   UNL     1      16.696  33.967  13.758  0.00  0.00    -0.235 NA
ATOM      5  C   UNL     1      15.568  33.444  13.249  0.00  0.00    +0.120 C 
ATOM      6  C   UNL     1      15.518  32.656  12.116  0.00  0.00    +0.007 C 
ATOM      7  C   UNL     1      14.219  32.074  11.668  0.00  0.00    +0.049 C 
ENDROOT
BRANCH   3   8
ATOM      8  C   UNL     1      19.095  34.221  13.632  0.00  0.00    +0.023 C 
ATOM      9  C   UNL     1      20.341  33.711  13.230  0.00  0.00    +0.059 C 
ATOM     10  C   UNL     1      21.543  34.221  13.742  0.00  0.00    +0.142 C 
ATOM     11  C   UNL     1      21.540  35.302  14.633  0.00  0.00    +0.077 C 
ATOM     12  C   UNL     1      20.308  35.789  15.075  0.00  0.00    +0.028 C 
ATOM     13  C   UNL     1      19.108  35.264  14.575  0.00  0.00    +0.013 C 
BRANCH  11  14
ATOM     14  N   UNL     1      22.688  35.905  15.185  0.00  0.00    -0.266 N 
ATOM     15  C   UNL     1      23.100  36.021  16.468  0.00  0.00    +0.304 C 
ATOM     16  O   UNL     1      23.682  37.045  16.829  0.00  0.00    -0.253 OA
ATOM     17  N   UNL     1      22.999  34.991  17.334  0.00  0.00    -0.299 N 
ATOM     18  H   UNL     1      23.237  36.478  14.556  0.00  0.00    +0.156 HD
ATOM     19  H   UNL     1      23.258  35.254  18.275  0.00  0.00    +0.150 HD
BRANCH  17  20
ATOM     20  C   UNL     1      22.757  33.584  17.075  0.00  0.00    +0.102 C 
ATOM     21  C   UNL     1      21.384  33.176  17.583  0.00  0.00    +0.024 C 
ENDBRANCH  17  20
ENDBRANCH  11  14
BRANCH  10  22
ATOM     22  O   UNL     1      22.694  33.602  13.330  0.00  0.00    -0.493 OA
ATOM     23  C   UNL     1      22.387  32.361  12.692  0.00  0.00    +0.277 C 
ENDBRANCH  10  22
ENDBRANCH   3   8
BRANCH   1  24
ATOM     24  N   UNL     1      16.896  31.721  10.323  0.00  0.00    -0.322 N 
ATOM     25  H   UNL     1      17.889  31.540  10.202  0.00  0.00    +0.148 HD
BRANCH  24  26
ATOM     26  C   UNL     1      16.213  32.125   9.092  0.00  0.00    +0.103 C 
BRANCH  26  27
ATOM     27  C   UNL     1      16.660  31.238   7.949  0.00  0.00    -0.009 C 
ATOM     28  C   UNL     1      15.911  30.142   7.526  0.00  0.00    +0.116 C 
ATOM     29  N   UNL     1      16.280  29.301   6.530  0.00  0.00    -0.263 NA
ATOM     30  C   UNL     1      17.451  29.565   5.915  0.00  0.00    +0.111 C 
ATOM     31  C   UNL     1      18.272  30.626   6.252  0.00  0.00    +0.020 C 
ATOM     32  C   UNL     1      17.871  31.469   7.284  0.00  0.00    +0.008 C 
ENDBRANCH  26  27
BRANCH  26  33
ATOM     33  C   UNL     1      16.526  33.617   8.823  0.00  0.00    +0.027 C 
BRANCH  33  35
ATOM     34  C   UNL     1      14.695  33.665   7.042  0.00  0.00    +0.004 C 
ATOM     35  C   UNL     1      15.401  34.419   8.157  0.00  0.00    -0.001 C 
ENDBRANCH  33  35
ENDBRANCH  26  33
ENDBRANCH  24  26
ENDBRANCH   1  24
TORSDOF 9
