REMARK  Name = 
REMARK  8 active torsions:
REMARK  status: ('A' for Active; 'I' for Inactive)
REMARK    1  A    between atoms: C_1  and  N_2
REMARK    2  A    between atoms: N_2  and  C_3
REMARK    3  A    between atoms: C_4  and  C_6
REMARK    4  A    between atoms: C_9  and  C_12
REMARK    5  A    between atoms: N_14  and  C_15
REMARK    6  A    between atoms: C_16  and  C_23
REMARK    7  A    between atoms: C_18  and  O_21
REMARK    8  A    between atoms: O_21  and  C_22
REMARK                            x       y       z     vdW  Elec       q    Type
REMARK                         _______ _______ _______ _____ _____    ______ ____
ROOT
ATOM      1  C   UNL     1      -3.295   6.219   1.557  0.00  0.00    +0.046 A 
ATOM      2  C   UNL     1      -4.031   6.886   0.562  0.00  0.00    +0.062 A 
ATOM      3  C   UNL     1      -5.271   6.399   0.134  0.00  0.00    +0.060 A 
ATOM      4  C   UNL     1      -5.828   5.271   0.735  0.00  0.00    +0.121 A 
ATOM      5  C   UNL     1      -5.124   4.622   1.749  0.00  0.00    +0.047 A 
ATOM      6  C   UNL     1      -3.865   5.090   2.154  0.00  0.00    +0.027 A 
ENDROOT
BRANCH   2   7
ATOM      7  C   UNL     1      -3.463   8.040  -0.164  0.00  0.00    +0.251 C 
ATOM      8  O   UNL     1      -3.200   7.899  -1.350  0.00  0.00    -0.270 OA
ATOM      9  N   UNL     1      -3.265   9.148   0.619  0.00  0.00    -0.266 N 
ATOM     10  C   UNL     1      -2.630  10.340   0.269  0.00  0.00    +0.125 A 
ATOM     11  N   UNL     1      -2.569  11.224   1.288  0.00  0.00    -0.239 NA
ATOM     12  C   UNL     1      -1.939  12.403   1.051  0.00  0.00    +0.132 A 
ATOM     13  C   UNL     1      -1.360  12.739  -0.161  0.00  0.00    +0.059 A 
ATOM     14  C   UNL     1      -1.433  11.817  -1.195  0.00  0.00    +0.025 A 
ATOM     15  C   UNL     1      -2.077  10.596  -0.979  0.00  0.00    +0.045 A 
ATOM     16 CL   UNL     1      -0.572  14.245  -0.381  0.00  0.00    -0.082 Cl
ATOM     17  H   UNL     1      -3.616   9.168   1.569  0.00  0.00    +0.157 HD
ENDBRANCH   2   7
BRANCH   1  20
ATOM     18  C   UNL     1      -0.985   6.073   2.571  0.00  0.00    +0.248 C 
ATOM     19  O   UNL     1      -0.173   6.703   3.244  0.00  0.00    -0.270 OA
ATOM     20  N   UNL     1      -2.038   6.714   1.966  0.00  0.00    -0.281 N 
ATOM     21  H   UNL     1      -1.857   7.707   1.840  0.00  0.00    +0.155 HD
BRANCH  18  25
ATOM     22  C   UNL     1       0.180   2.035   1.708  0.00  0.00    +0.061 A 
ATOM     23  C   UNL     1       0.361   2.576   2.990  0.00  0.00    +0.016 A 
ATOM     24  C   UNL     1      -0.068   3.876   3.274  0.00  0.00    +0.014 A 
ATOM     25  C   UNL     1      -0.697   4.643   2.287  0.00  0.00    +0.037 A 
ATOM     26  C   UNL     1      -0.891   4.103   1.009  0.00  0.00    +0.014 A 
ATOM     27  C   UNL     1      -0.470   2.801   0.728  0.00  0.00    +0.016 A 
BRANCH  22  31
ATOM     28  C   UNL     1       2.234  -0.807   0.181  0.00  0.00    +0.276 C 
ATOM     29  N   UNL     1       1.765   0.525   0.605  0.00  0.00    -0.229 N 
ATOM     30  C   UNL     1       2.563   1.683   0.126  0.00  0.00    +0.276 C 
ATOM     31  C   UNL     1       0.693   0.689   1.385  0.00  0.00    +0.270 C 
ATOM     32  N   UNL     1       0.012  -0.320   1.896  0.00  0.00    -0.288 N 
ATOM     33  H   UNL     1      -0.804  -0.134   2.469  0.00  0.00    +0.301 HD
ATOM     34  H   UNL     1       0.272  -1.283   1.756  0.00  0.00    +0.301 HD
ENDBRANCH  22  31
ENDBRANCH  18  25
ENDBRANCH   1  20
BRANCH   4  35
ATOM     35  O   UNL     1      -7.048   4.907   0.241  0.00  0.00    -0.495 OA
ATOM     36  C   UNL     1      -7.721   3.833   0.888  0.00  0.00    +0.277 C 
ENDBRANCH   4  35
TORSDOF 5
