REMARK  Name = =
REMARK  8 active torsions:
REMARK  status: ('A' for Active; 'I' for Inactive)
REMARK    1  A    between atoms: C_1  and  N_23
REMARK    2  A    between atoms: C_2  and  O_27
REMARK    3  A    between atoms: N_11  and  C_13
REMARK    4  A    between atoms: C_21  and  C_26
REMARK    5  A    between atoms: O_27  and  C_28
REMARK    6  A    between atoms: C_28  and  C_29
REMARK    7  A    between atoms: C_29  and  C_30
REMARK    8  A    between atoms: C_30  and  N_31
REMARK                            x       y       z     vdW  Elec       q    Type
REMARK                         _______ _______ _______ _____ _____    ______ ____
ROOT
ATOM      1  C   UNL     1      17.047  33.900  13.062  0.00  0.00    +0.077 C 
ATOM      2  C   UNL     1      17.338  33.076  11.962  0.00  0.00    +0.144 C 
ATOM      3  C   UNL     1      18.662  32.711  11.718  0.00  0.00    +0.076 C 
ATOM      4  C   UNL     1      19.693  33.053  12.586  0.00  0.00    +0.080 C 
ATOM      5  C   UNL     1      19.400  33.763  13.758  0.00  0.00    +0.042 C 
ATOM      6  C   UNL     1      18.061  34.188  13.979  0.00  0.00    +0.040 C 
ATOM      7  C   UNL     1      20.489  33.956  14.638  0.00  0.00    +0.134 C 
ATOM      8  N   UNL     1      21.719  33.517  14.329  0.00  0.00    -0.220 NA
ATOM      9  C   UNL     1      21.883  32.901  13.157  0.00  0.00    +0.223 C 
ATOM     10  N   UNL     1      20.916  32.631  12.277  0.00  0.00    -0.235 NA
ATOM     11  N   UNL     1      20.247  34.493  15.923  0.00  0.00    -0.299 N 
ATOM     12  H   UNL     1      19.585  35.258  15.926  0.00  0.00    +0.154 HD
ENDROOT
BRANCH  11  13
ATOM     13  C   UNL     1      20.942  34.368  17.142  0.00  0.00    +0.034 C 
ATOM     14  C   UNL     1      20.998  35.493  17.984  0.00  0.00    +0.046 C 
ATOM     15  C   UNL     1      21.571  35.416  19.258  0.00  0.00    +0.078 C 
ATOM     16  C   UNL     1      22.104  34.213  19.706  0.00  0.00    +0.142 C 
ATOM     17  C   UNL     1      22.059  33.088  18.896  0.00  0.00    +0.041 C 
ATOM     18  C   UNL     1      21.465  33.164  17.630  0.00  0.00    +0.026 C 
ATOM     19  F   UNL     1      22.655  34.115  20.923  0.00  0.00    -0.204 F 
ATOM     20 CL   UNL     1      21.577  36.812  20.265  0.00  0.00    -0.081 Cl
ENDBRANCH  11  13
BRANCH   1  23
ATOM     21  C   UNL     1      15.229  34.747  14.585  0.00  0.00    +0.241 C 
ATOM     22  O   UNL     1      14.379  35.631  14.612  0.00  0.00    -0.271 OA
ATOM     23  N   UNL     1      15.747  34.347  13.379  0.00  0.00    -0.279 N 
ATOM     24  H   UNL     1      15.068  34.408  12.627  0.00  0.00    +0.155 HD
BRANCH  21  26
ATOM     25  C   UNL     1      14.950  34.078  16.931  0.00  0.00    +0.013 C 
ATOM     26  C   UNL     1      15.686  34.045  15.812  0.00  0.00    +0.060 C 
ENDBRANCH  21  26
ENDBRANCH   1  23
BRANCH   2  27
ATOM     27  O   UNL     1      16.259  32.602  11.268  0.00  0.00    -0.490 OA
BRANCH  27  28
ATOM     28  C   UNL     1      15.965  33.068   9.955  0.00  0.00    +0.234 C 
BRANCH  28  29
ATOM     29  C   UNL     1      16.364  32.027   8.910  0.00  0.00    +0.092 C 
BRANCH  29  30
ATOM     30  C   UNL     1      15.292  31.798   7.839  0.00  0.00    +0.134 C 
BRANCH  30  31
ATOM     31  N   UNL     1      15.123  30.340   7.466  0.00  0.00    +0.239 N 
ATOM     32  C   UNL     1      13.670  29.889   7.663  0.00  0.00    +0.160 C 
ATOM     33  C   UNL     1      13.476  28.442   7.195  0.00  0.00    +0.210 C 
ATOM     34  O   UNL     1      13.898  28.276   5.837  0.00  0.00    -0.369 OA
ATOM     35  C   UNL     1      15.290  28.567   5.692  0.00  0.00    +0.210 C 
ATOM     36  C   UNL     1      15.582  30.028   6.044  0.00  0.00    +0.160 C 
ATOM     37  H   UNL     1      15.686  29.782   8.127  0.00  0.00    +0.203 HD
ENDBRANCH  30  31
ENDBRANCH  29  30
ENDBRANCH  28  29
ENDBRANCH  27  28
ENDBRANCH   2  27
TORSDOF 8
