MODEL 1
REMARK minimizedAffinity -7.14447165
REMARK minimizedRMSD -1
REMARK  Name = 
REMARK  2 active torsions:
REMARK  status: ('A' for Active; 'I' for Inactive)
REMARK    1  A    between atoms: C_1  and  C_2
REMARK    2  A    between atoms: N_12  and  C_16
REMARK                            x       y       z     vdW  Elec       q    Type
REMARK                         _______ _______ _______ _____ _____    ______ ____
ROOT
ATOM      1  C   UNL     1      19.696  33.849  13.580  0.00  0.00    +0.046 C 
ATOM      2  C   UNL     1      18.214  33.986  13.783  0.00  0.00    -0.023 A 
ATOM      3  C   UNL     1      17.752  34.635  14.954  0.00  0.00    +0.033 A 
ATOM      4  C   UNL     1      16.414  34.825  15.265  0.00  0.00    +0.073 A 
ATOM      5  C   UNL     1      15.449  34.348  14.364  0.00  0.00    +0.028 A 
ATOM      6  C   UNL     1      14.087  34.528  14.663  0.00  0.00    +0.013 A 
ATOM      7  C   UNL     1      13.732  35.172  15.839  0.00  0.00    +0.020 A 
ATOM      8  C   UNL     1      14.749  35.613  16.668  0.00  0.00    +0.111 A 
ATOM      9  N   UNL     1      16.068  35.452  16.406  0.00  0.00    -0.255 NA
ATOM     10  C   UNL     1      15.853  33.694  13.174  0.00  0.00    +0.100 A 
ATOM     11  C   UNL     1      17.215  33.525  12.898  0.00  0.00    +0.073 A 
ATOM     12  N   UNL     1      17.211  32.867  11.681  0.00  0.00    -0.315 N 
ATOM     13  C   UNL     1      15.902  32.667  11.302  0.00  0.00    +0.194 A 
ATOM     14  N   UNL     1      15.069  33.160  12.178  0.00  0.00    -0.214 NA
ATOM     15  N   UNL     1      15.552  32.042  10.172  0.00  0.00    -0.329 N 
ATOM     16  C   UNL     1      18.343  32.435  10.899  0.00  0.00    +0.152 C 
ATOM     17  H   UNL     1      14.562  31.939   9.972  0.00  0.00    +0.145 HD
ATOM     18  H   UNL     1      16.185  31.650   9.491  0.00  0.00    +0.145 HD
ENDROOT
TORSDOF 0
ENDMDL
MODEL 2
REMARK minimizedAffinity -7.07533503
REMARK minimizedRMSD -1
REMARK  Name = 
REMARK  2 active torsions:
REMARK  status: ('A' for Active; 'I' for Inactive)
REMARK    1  A    between atoms: C_1  and  C_2
REMARK    2  A    between atoms: N_12  and  C_16
REMARK                            x       y       z     vdW  Elec       q    Type
REMARK                         _______ _______ _______ _____ _____    ______ ____
ROOT
ATOM      1  C   UNL     1      16.222  33.622  11.272  0.00  0.00    +0.046 C 
ATOM      2  C   UNL     1      16.333  33.745  12.764  0.00  0.00    -0.023 A 
ATOM      3  C   UNL     1      15.287  34.392  13.467  0.00  0.00    +0.033 A 
ATOM      4  C   UNL     1      15.266  34.575  14.842  0.00  0.00    +0.073 A 
ATOM      5  C   UNL     1      16.348  34.088  15.592  0.00  0.00    +0.028 A 
ATOM      6  C   UNL     1      16.347  34.267  16.986  0.00  0.00    +0.013 A 
ATOM      7  C   UNL     1      15.278  34.918  17.584  0.00  0.00    +0.020 A 
ATOM      8  C   UNL     1      14.253  35.364  16.768  0.00  0.00    +0.111 A 
ATOM      9  N   UNL     1      14.228  35.206  15.423  0.00  0.00    -0.255 NA
ATOM     10  C   UNL     1      17.420  33.428  14.943  0.00  0.00    +0.100 A 
ATOM     11  C   UNL     1      17.400  33.263  13.553  0.00  0.00    +0.073 A 
ATOM     12  N   UNL     1      18.581  32.590  13.298  0.00  0.00    -0.315 N 
ATOM     13  C   UNL     1      19.238  32.399  14.494  0.00  0.00    +0.194 A 
ATOM     14  N   UNL     1      18.558  32.888  15.496  0.00  0.00    -0.214 NA
ATOM     15  N   UNL     1      20.423  31.788  14.593  0.00  0.00    -0.329 N 
ATOM     16  C   UNL     1      19.095  32.143  12.027  0.00  0.00    +0.152 C 
ATOM     17  H   UNL     1      20.834  31.691  15.515  0.00  0.00    +0.145 HD
ATOM     18  H   UNL     1      20.962  31.414  13.826  0.00  0.00    +0.145 HD
ENDROOT
TORSDOF 0
ENDMDL
MODEL 3
REMARK minimizedAffinity -7.0475235
REMARK minimizedRMSD -1
REMARK  Name = 
REMARK  2 active torsions:
REMARK  status: ('A' for Active; 'I' for Inactive)
REMARK    1  A    between atoms: C_1  and  C_2
REMARK    2  A    between atoms: N_12  and  C_16
REMARK                            x       y       z     vdW  Elec       q    Type
REMARK                         _______ _______ _______ _____ _____    ______ ____
ROOT
ATOM      1  C   UNL     1      18.515  33.332  16.263  0.00  0.00    +0.046 C 
ATOM      2  C   UNL     1      18.397  33.274  14.767  0.00  0.00    -0.023 A 
ATOM      3  C   UNL     1      17.151  33.602  14.177  0.00  0.00    +0.033 A 
ATOM      4  C   UNL     1      16.906  33.587  12.812  0.00  0.00    +0.073 A 
ATOM      5  C   UNL     1      17.956  33.226  11.953  0.00  0.00    +0.028 A 
ATOM      6  C   UNL     1      17.727  33.201  10.567  0.00  0.00    +0.013 A 
ATOM      7  C   UNL     1      16.470  33.534  10.083  0.00  0.00    +0.020 A 
ATOM      8  C   UNL     1      15.495  33.879  11.001  0.00  0.00    +0.111 A 
ATOM      9  N   UNL     1      15.687  33.911  12.341  0.00  0.00    -0.255 NA
ATOM     10  C   UNL     1      19.225  32.892  12.488  0.00  0.00    +0.100 A 
ATOM     11  C   UNL     1      19.430  32.922  13.872  0.00  0.00    +0.073 A 
ATOM     12  N   UNL     1      20.756  32.551  14.004  0.00  0.00    -0.315 N 
ATOM     13  C   UNL     1      21.265  32.311  12.746  0.00  0.00    +0.194 A 
ATOM     14  N   UNL     1      20.368  32.515  11.820  0.00  0.00    -0.214 NA
ATOM     15  N   UNL     1      22.524  31.917  12.525  0.00  0.00    -0.329 N 
ATOM     16  C   UNL     1      21.527  32.414  15.214  0.00  0.00    +0.152 C 
ATOM     17  H   UNL     1      22.813  31.764  11.565  0.00  0.00    +0.145 HD
ATOM     18  H   UNL     1      23.224  31.748  13.232  0.00  0.00    +0.145 HD
ENDROOT
TORSDOF 0
ENDMDL
MODEL 4
REMARK minimizedAffinity -7.04124165
REMARK minimizedRMSD -1
REMARK  Name = 
REMARK  2 active torsions:
REMARK  status: ('A' for Active; 'I' for Inactive)
REMARK    1  A    between atoms: C_1  and  C_2
REMARK    2  A    between atoms: N_12  and  C_16
REMARK                            x       y       z     vdW  Elec       q    Type
REMARK                         _______ _______ _______ _____ _____    ______ ____
ROOT
ATOM      1  C   UNL     1      14.569  34.788  16.052  0.00  0.00    +0.046 C 
ATOM      2  C   UNL     1      15.599  34.280  15.085  0.00  0.00    -0.023 A 
ATOM      3  C   UNL     1      15.272  34.249  13.707  0.00  0.00    +0.033 A 
ATOM      4  C   UNL     1      16.128  33.802  12.711  0.00  0.00    +0.073 A 
ATOM      5  C   UNL     1      17.403  33.350  13.086  0.00  0.00    +0.028 A 
ATOM      6  C   UNL     1      18.283  32.889  12.092  0.00  0.00    +0.013 A 
ATOM      7  C   UNL     1      17.870  32.893  10.767  0.00  0.00    +0.020 A 
ATOM      8  C   UNL     1      16.597  33.358  10.488  0.00  0.00    +0.111 A 
ATOM      9  N   UNL     1      15.728  33.807  11.425  0.00  0.00    -0.255 NA
ATOM     10  C   UNL     1      17.785  33.361  14.450  0.00  0.00    +0.100 A 
ATOM     11  C   UNL     1      16.892  33.823  15.422  0.00  0.00    +0.073 A 
ATOM     12  N   UNL     1      17.607  33.688  16.599  0.00  0.00    -0.315 N 
ATOM     13  C   UNL     1      18.842  33.161  16.295  0.00  0.00    +0.194 A 
ATOM     14  N   UNL     1      18.976  32.962  15.012  0.00  0.00    -0.214 NA
ATOM     15  N   UNL     1      19.774  32.893  17.217  0.00  0.00    -0.329 N 
ATOM     16  C   UNL     1      17.188  34.018  17.939  0.00  0.00    +0.152 C 
ATOM     17  H   UNL     1      20.657  32.505  16.903  0.00  0.00    +0.145 HD
ATOM     18  H   UNL     1      19.680  33.035  18.212  0.00  0.00    +0.145 HD
ENDROOT
TORSDOF 0
ENDMDL
MODEL 5
REMARK minimizedAffinity -6.94867563
REMARK minimizedRMSD -1
REMARK  Name = 
REMARK  2 active torsions:
REMARK  status: ('A' for Active; 'I' for Inactive)
REMARK    1  A    between atoms: C_1  and  C_2
REMARK    2  A    between atoms: N_12  and  C_16
REMARK                            x       y       z     vdW  Elec       q    Type
REMARK                         _______ _______ _______ _____ _____    ______ ____
ROOT
ATOM      1  C   UNL     1      18.787  33.205  16.248  0.00  0.00    +0.046 C 
ATOM      2  C   UNL     1      17.893  33.371  15.054  0.00  0.00    -0.023 A 
ATOM      3  C   UNL     1      18.428  33.101  13.770  0.00  0.00    +0.033 A 
ATOM      4  C   UNL     1      17.713  33.217  12.586  0.00  0.00    +0.073 A 
ATOM      5  C   UNL     1      16.373  33.627  12.658  0.00  0.00    +0.028 A 
ATOM      6  C   UNL     1      15.633  33.755  11.470  0.00  0.00    +0.013 A 
ATOM      7  C   UNL     1      16.245  33.471  10.258  0.00  0.00    +0.020 A 
ATOM      8  C   UNL     1      17.570  33.071  10.281  0.00  0.00    +0.111 A 
ATOM      9  N   UNL     1      18.307  32.940  11.410  0.00  0.00    -0.255 NA
ATOM     10  C   UNL     1      15.784  33.908  13.916  0.00  0.00    +0.100 A 
ATOM     11  C   UNL     1      16.541  33.776  15.086  0.00  0.00    +0.073 A 
ATOM     12  N   UNL     1      15.646  34.122  16.082  0.00  0.00    -0.315 N 
ATOM     13  C   UNL     1      14.445  34.447  15.491  0.00  0.00    +0.194 A 
ATOM     14  N   UNL     1      14.501  34.320  14.193  0.00  0.00    -0.214 NA
ATOM     15  N   UNL     1      13.369  34.842  16.180  0.00  0.00    -0.329 N 
ATOM     16  C   UNL     1      15.869  34.163  17.506  0.00  0.00    +0.152 C 
ATOM     17  H   UNL     1      12.525  35.060  15.661  0.00  0.00    +0.145 HD
ATOM     18  H   UNL     1      13.315  34.952  17.182  0.00  0.00    +0.145 HD
ENDROOT
TORSDOF 0
ENDMDL
