REMARK  Name = 
REMARK  7 active torsions:
REMARK  status: ('A' for Active; 'I' for Inactive)
REMARK    1  A    between atoms: C_1  and  N_2
REMARK    2  A    between atoms: C_3  and  C_5
REMARK    3  A    between atoms: C_9  and  O_11
REMARK    4  A    between atoms: O_11  and  C_12
REMARK    5  A    between atoms: C_15  and  N_18
REMARK    6  A    between atoms: N_21  and  C_22
REMARK    7  A    between atoms: C_24  and  C_29
REMARK                            x       y       z     vdW  Elec       q    Type
REMARK                         _______ _______ _______ _____ _____    ______ ____
ROOT
ATOM      1  C   UNL     1      -0.764   5.051  -1.975  0.00  0.00    +0.131 A 
ATOM      2  C   UNL     1      -0.639   6.409  -1.706  0.00  0.00    +0.086 A 
ATOM      3  C   UNL     1      -1.587   7.283  -2.223  0.00  0.00    +0.148 A 
ATOM      4  C   UNL     1      -2.648   6.833  -3.022  0.00  0.00    +0.070 A 
ATOM      5  C   UNL     1      -2.694   5.482  -3.370  0.00  0.00    +0.030 A 
ATOM      6  C   UNL     1      -1.764   4.586  -2.831  0.00  0.00    +0.048 A 
ATOM      7  F   UNL     1      -1.491   8.588  -1.925  0.00  0.00    -0.203 F 
ENDROOT
BRANCH   4   8
ATOM      8  N   UNL     1      -3.577   7.801  -3.452  0.00  0.00    -0.267 N 
ATOM      9  C   UNL     1      -4.752   7.724  -4.112  0.00  0.00    +0.308 C 
ATOM     10  O   UNL     1      -5.083   8.671  -4.830  0.00  0.00    -0.252 OA
ATOM     11  N   UNL     1      -5.588   6.664  -4.035  0.00  0.00    -0.269 N 
ATOM     12  H   UNL     1      -3.256   8.761  -3.371  0.00  0.00    +0.156 HD
ATOM     13  H   UNL     1      -6.226   6.655  -4.823  0.00  0.00    +0.156 HD
BRANCH  11  14
ATOM     14  C   UNL     1      -5.865   5.741  -3.013  0.00  0.00    +0.035 A 
ATOM     15  C   UNL     1      -5.413   5.872  -1.698  0.00  0.00    +0.037 A 
ATOM     16  C   UNL     1      -5.674   4.878  -0.731  0.00  0.00    +0.075 A 
ATOM     17  C   UNL     1      -6.454   3.775  -1.095  0.00  0.00    +0.053 A 
ATOM     18  C   UNL     1      -6.960   3.669  -2.393  0.00  0.00    +0.022 A 
ATOM     19  C   UNL     1      -6.670   4.648  -3.344  0.00  0.00    +0.025 A 
ATOM     20 CL   UNL     1      -6.835   2.512   0.015  0.00  0.00    -0.083 Cl
BRANCH  16  21
ATOM     21  C   UNL     1      -5.102   5.013   0.654  0.00  0.00    +0.419 C 
ATOM     22  F   UNL     1      -4.353   6.145   0.813  0.00  0.00    -0.166 F 
ATOM     23  F   UNL     1      -6.052   5.072   1.625  0.00  0.00    -0.166 F 
ATOM     24  F   UNL     1      -4.266   3.992   0.987  0.00  0.00    -0.166 F 
ENDBRANCH  16  21
ENDBRANCH  11  14
ENDBRANCH   4   8
BRANCH   1  25
ATOM     25  O   UNL     1       0.157   4.175  -1.453  0.00  0.00    -0.456 OA
BRANCH  25  30
ATOM     26  C   UNL     1      -0.600   1.382   0.723  0.00  0.00    +0.129 A 
ATOM     27  N   UNL     1      -0.990   1.962   1.885  0.00  0.00    -0.250 NA
ATOM     28  C   UNL     1      -1.020   3.310   1.907  0.00  0.00    +0.115 A 
ATOM     29  C   UNL     1      -0.664   4.103   0.829  0.00  0.00    +0.066 A 
ATOM     30  C   UNL     1      -0.274   3.470  -0.349  0.00  0.00    +0.132 A 
ATOM     31  C   UNL     1      -0.227   2.084  -0.413  0.00  0.00    +0.079 A 
BRANCH  26  34
ATOM     32  C   UNL     1       1.935  -0.185   0.606  0.00  0.00    +0.128 C 
ATOM     33  N   UNL     1       0.614  -0.765   0.593  0.00  0.00    -0.313 N 
ATOM     34  C   UNL     1      -0.591  -0.106   0.698  0.00  0.00    +0.262 C 
ATOM     35  O   UNL     1      -1.640  -0.740   0.740  0.00  0.00    -0.269 OA
ATOM     36  H   UNL     1       0.520  -1.774   0.574  0.00  0.00    +0.149 HD
ENDBRANCH  26  34
ENDBRANCH  25  30
ENDBRANCH   1  25
TORSDOF 6
