REMARK  Name = =
REMARK  0 active torsions:
REMARK  status: ('A' for Active; 'I' for Inactive)
REMARK                            x       y       z     vdW  Elec       q    Type
REMARK                         _______ _______ _______ _____ _____    ______ ____
ROOT
ATOM      1  C   UNL     1      17.296  31.456   7.310  0.00  0.00    +0.067 C 
ATOM      2  C   UNL     1      16.959  31.837   8.715  0.00  0.00    +0.057 C 
ATOM      3  C   UNL     1      15.637  31.978   9.119  0.00  0.00    +0.134 C 
ATOM      4  N   UNL     1      15.274  32.320  10.379  0.00  0.00    -0.252 NA
ATOM      5  C   UNL     1      16.278  32.523  11.255  0.00  0.00    +0.091 C 
ATOM      6  C   UNL     1      15.999  32.876  12.569  0.00  0.00    +0.032 C 
ATOM      7  C   UNL     1      17.003  33.099  13.522  0.00  0.00    +0.030 C 
ATOM      8  C   UNL     1      18.328  32.950  13.098  0.00  0.00    +0.072 A 
ATOM      9  C   UNL     1      18.661  32.597  11.788  0.00  0.00    +0.118 A 
ATOM     10  C   UNL     1      17.624  32.379  10.848  0.00  0.00    +0.117 C 
ATOM     11  N   UNL     1      17.978  32.036   9.580  0.00  0.00    -0.247 NA
ATOM     12  N   UNL     1      20.035  32.522  11.651  0.00  0.00    -0.212 NA
ATOM     13  C   UNL     1      20.534  32.815  12.822  0.00  0.00    +0.194 A 
ATOM     14  N   UNL     1      19.542  33.083  13.734  0.00  0.00    -0.315 N 
ATOM     15  C   UNL     1      19.751  33.441  15.116  0.00  0.00    +0.152 C 
ATOM     16  N   UNL     1      21.835  32.857  13.125  0.00  0.00    -0.329 N 
ATOM     17  H   UNL     1      22.499  32.644  12.387  0.00  0.00    +0.145 HD
ATOM     18  H   UNL     1      22.227  33.082  14.028  0.00  0.00    +0.145 HD
ENDROOT
TORSDOF 0
