REMARK  Name = =
REMARK  2 active torsions:
REMARK  status: ('A' for Active; 'I' for Inactive)
REMARK    1  A    between atoms: C_3  and  N_18
REMARK    2  A    between atoms: C_11  and  N_15
REMARK                            x       y       z     vdW  Elec       q    Type
REMARK                         _______ _______ _______ _____ _____    ______ ____
ROOT
ATOM      1  C   UNL     1      19.157  33.233  12.612  0.00  0.00    +0.012 C 
ATOM      2  C   UNL     1      18.993  32.462  11.461  0.00  0.00    +0.023 C 
ATOM      3  C   UNL     1      17.719  32.093  11.037  0.00  0.00    +0.027 C 
ATOM      4  C   UNL     1      16.612  32.535  11.772  0.00  0.00    +0.051 C 
ATOM      5  C   UNL     1      16.740  33.305  12.925  0.00  0.00    +0.073 C 
ATOM      6  N   UNL     1      15.640  33.693  13.599  0.00  0.00    -0.247 NA
ATOM      7  C   UNL     1      15.774  34.440  14.712  0.00  0.00    +0.073 C 
ATOM      8  C   UNL     1      17.030  34.835  15.203  0.00  0.00    +0.001 C 
ATOM      9  C   UNL     1      17.125  35.614  16.366  0.00  0.00    +0.012 C 
ATOM     10  C   UNL     1      15.972  36.001  17.046  0.00  0.00    +0.023 C 
ATOM     11  C   UNL     1      14.718  35.620  16.577  0.00  0.00    +0.027 C 
ATOM     12  C   UNL     1      14.642  34.844  15.415  0.00  0.00    +0.051 C 
ATOM     13  C   UNL     1      18.168  34.430  14.499  0.00  0.00    +0.020 C 
ATOM     14  C   UNL     1      18.037  33.654  13.344  0.00  0.00    +0.001 C 
ENDROOT
BRANCH  11  15
ATOM     15  N   UNL     1      13.573  36.001  17.251  0.00  0.00    -0.358 N 
ATOM     16  H   UNL     1      13.627  36.563  18.089  0.00  0.00    +0.142 HD
ATOM     17  H   UNL     1      12.661  35.727  16.912  0.00  0.00    +0.142 HD
ENDBRANCH  11  15
BRANCH   3  18
ATOM     18  N   UNL     1      17.551  31.376   9.867  0.00  0.00    -0.358 N 
ATOM     19  H   UNL     1      16.634  31.042   9.603  0.00  0.00    +0.142 HD
ATOM     20  H   UNL     1      18.352  30.990   9.384  0.00  0.00    +0.142 HD
ENDBRANCH   3  18
TORSDOF 2
