REMARK  Name = =
REMARK  6 active torsions:
REMARK  status: ('A' for Active; 'I' for Inactive)
REMARK    1  A    between atoms: C_1  and  O_23
REMARK    2  A    between atoms: C_2  and  O_21
REMARK    3  A    between atoms: N_11  and  C_13
REMARK    4  A    between atoms: O_23  and  C_27
REMARK    5  A    between atoms: N_24  and  C_31
REMARK    6  A    between atoms: C_31  and  C_34
REMARK                            x       y       z     vdW  Elec       q    Type
REMARK                         _______ _______ _______ _____ _____    ______ ____
ROOT
ATOM      1  C   UNL     1      18.252  33.469  13.611  0.00  0.00    +0.163 C 
ATOM      2  C   UNL     1      17.697  34.470  14.398  0.00  0.00    +0.164 C 
ATOM      3  C   UNL     1      18.505  35.478  14.924  0.00  0.00    +0.078 C 
ATOM      4  C   UNL     1      19.881  35.472  14.741  0.00  0.00    +0.080 C 
ATOM      5  C   UNL     1      20.465  34.426  14.010  0.00  0.00    +0.044 C 
ATOM      6  C   UNL     1      19.636  33.411  13.464  0.00  0.00    +0.062 C 
ATOM      7  C   UNL     1      21.866  34.480  13.893  0.00  0.00    +0.134 C 
ATOM      8  N   UNL     1      22.588  35.475  14.440  0.00  0.00    -0.220 NA
ATOM      9  C   UNL     1      21.919  36.407  15.120  0.00  0.00    +0.223 C 
ATOM     10  N   UNL     1      20.593  36.462  15.281  0.00  0.00    -0.235 NA
ATOM     11  N   UNL     1      22.555  33.483  13.171  0.00  0.00    -0.297 N 
ATOM     12  H   UNL     1      22.158  33.292  12.264  0.00  0.00    +0.154 HD
ENDROOT
BRANCH  11  13
ATOM     13  C   UNL     1      23.884  33.047  13.353  0.00  0.00    +0.070 C 
ATOM     14  C   UNL     1      24.557  32.232  12.425  0.00  0.00    +0.163 C 
ATOM     15  C   UNL     1      25.861  31.796  12.666  0.00  0.00    +0.078 C 
ATOM     16  C   UNL     1      26.519  32.166  13.837  0.00  0.00    +0.023 C 
ATOM     17  C   UNL     1      25.872  32.980  14.765  0.00  0.00    +0.003 C 
ATOM     18  C   UNL     1      24.566  33.418  14.523  0.00  0.00    +0.026 C 
ATOM     19 CL   UNL     1      26.684  30.809  11.518  0.00  0.00    -0.081 Cl
ATOM     20  F   UNL     1      23.966  31.915  11.261  0.00  0.00    -0.202 F 
ENDBRANCH  11  13
BRANCH   2  21
ATOM     21  O   UNL     1      16.350  34.524  14.640  0.00  0.00    -0.491 OA
ATOM     22  C   UNL     1      16.084  34.108  15.983  0.00  0.00    +0.277 C 
ENDBRANCH   2  21
BRANCH   1  23
ATOM     23  O   UNL     1      17.497  32.467  13.073  0.00  0.00    -0.485 OA
BRANCH  23  27
ATOM     24  N   UNL     1      16.085  31.821   9.103  0.00  0.00    +0.242 N 
ATOM     25  C   UNL     1      17.578  31.958   9.309  0.00  0.00    +0.135 C 
ATOM     26  C   UNL     1      17.894  31.676  10.769  0.00  0.00    +0.095 C 
ATOM     27  C   UNL     1      17.114  32.615  11.694  0.00  0.00    +0.184 C 
ATOM     28  C   UNL     1      15.605  32.546  11.415  0.00  0.00    +0.095 C 
ATOM     29  C   UNL     1      15.309  32.804   9.946  0.00  0.00    +0.135 C 
ATOM     30  H   UNL     1      15.831  30.875   9.417  0.00  0.00    +0.204 HD
BRANCH  24  31
ATOM     31  C   UNL     1      15.678  31.867   7.620  0.00  0.00    +0.228 C 
BRANCH  31  34
ATOM     32  C   UNL     1      13.501  29.831   7.490  0.00  0.00    +0.128 C 
ATOM     33  N   UNL     1      14.781  29.678   6.837  0.00  0.00    -0.314 N 
ATOM     34  C   UNL     1      15.828  30.552   6.844  0.00  0.00    +0.258 C 
ATOM     35  O   UNL     1      16.857  30.274   6.228  0.00  0.00    -0.270 OA
ATOM     36  H   UNL     1      14.944  28.829   6.300  0.00  0.00    +0.149 HD
ENDBRANCH  31  34
ENDBRANCH  24  31
ENDBRANCH  23  27
ENDBRANCH   1  23
TORSDOF 6
