REMARK  Name = =
REMARK  0 active torsions:
REMARK  status: ('A' for Active; 'I' for Inactive)
REMARK                            x       y       z     vdW  Elec       q    Type
REMARK                         _______ _______ _______ _____ _____    ______ ____
ROOT
ATOM      1  C   UNL     1      16.288  32.188   8.106  0.00  0.00    +0.001 C 
ATOM      2  C   UNL     1      17.335  31.821   7.272  0.00  0.00    +0.002 C 
ATOM      3  C   UNL     1      17.197  30.713   6.431  0.00  0.00    +0.028 C 
ATOM      4  C   UNL     1      16.034  29.952   6.400  0.00  0.00    +0.076 C 
ATOM      5  C   UNL     1      14.976  30.314   7.245  0.00  0.00    +0.040 C 
ATOM      6  C   UNL     1      15.110  31.442   8.094  0.00  0.00    +0.013 C 
ATOM      7  C   UNL     1      13.840  29.498   7.162  0.00  0.00    +0.127 C 
ATOM      8  N   UNL     1      13.742  28.464   6.318  0.00  0.00    -0.221 NA
ATOM      9  C   UNL     1      14.818  28.220   5.561  0.00  0.00    +0.223 C 
ATOM     10  N   UNL     1      15.965  28.909   5.566  0.00  0.00    -0.235 NA
ATOM     11  N   UNL     1      12.704  29.732   7.924  0.00  0.00    -0.343 N 
ATOM     12  H   UNL     1      12.844  29.948   8.900  0.00  0.00    +0.144 HD
ATOM     13  H   UNL     1      11.972  29.062   7.716  0.00  0.00    +0.144 HD
ENDROOT
TORSDOF 0
