REMARK  Name = 
REMARK  8 active torsions:
REMARK  status: ('A' for Active; 'I' for Inactive)
REMARK    1  A    between atoms: C_3  and  N_11
REMARK    2  A    between atoms: N_11  and  C_12
REMARK    3  A    between atoms: N_11  and  C_17
REMARK    4  A    between atoms: C_12  and  C_13
REMARK    5  A    between atoms: C_13  and  C_14
REMARK    6  A    between atoms: C_14  and  C_15
REMARK    7  A    between atoms: C_15  and  N_16
REMARK    8  A    between atoms: C_17  and  C_18
REMARK                            x       y       z     vdW  Elec       q    Type
REMARK                         _______ _______ _______ _____ _____    ______ ____
ROOT
ATOM      1  N   UNL     1       0.818  -1.935  -1.028  0.00  0.00    +0.247 N 
ATOM      2  H   UNL     1       0.529  -1.121  -1.600  0.00  0.00    +0.204 HD
ENDROOT
BRANCH   1   5
ATOM      3  C   UNL     1       2.524   0.736  -0.844  0.00  0.00    +0.011 C 
ATOM      4  C   UNL     1       2.744  -0.564  -0.076  0.00  0.00    +0.061 C 
ATOM      5  C   UNL     1       1.409  -1.270   0.234  0.00  0.00    +0.115 C 
ATOM      6  C   UNL     1       0.441  -0.284   0.899  0.00  0.00    +0.092 A 
ATOM      7  C   UNL     1       0.585   1.100   0.745  0.00  0.00    -0.021 A 
ATOM      8  C   UNL     1       1.735   1.729   0.005  0.00  0.00    +0.037 C 
ATOM      9  C   UNL     1      -0.339   1.930   1.390  0.00  0.00    +0.007 A 
ATOM     10  C   UNL     1      -1.359   1.378   2.154  0.00  0.00    +0.020 A 
ATOM     11  C   UNL     1      -1.434   0.004   2.243  0.00  0.00    +0.111 A 
ATOM     12  N   UNL     1      -0.580  -0.837   1.610  0.00  0.00    -0.254 NA
ENDBRANCH   1   5
BRANCH   1  13
ATOM     13  C   UNL     1       1.708  -2.694  -1.972  0.00  0.00    +0.132 C 
BRANCH  13  14
ATOM     14  C   UNL     1       2.526  -3.830  -1.334  0.00  0.00    +0.056 C 
BRANCH  14  15
ATOM     15  C   UNL     1       1.843  -5.203  -1.205  0.00  0.00    +0.056 C 
BRANCH  15  16
ATOM     16  C   UNL     1       1.654  -5.979  -2.513  0.00  0.00    +0.127 C 
BRANCH  16  17
ATOM     17  N   UNL     1       2.925  -6.602  -2.954  0.00  0.00    +0.219 N 
ATOM     18  H   UNL     1       3.301  -7.259  -2.252  0.00  0.00    +0.199 HD
ATOM     19  H   UNL     1       2.777  -7.168  -3.805  0.00  0.00    +0.199 HD
ATOM     20  H   UNL     1       3.674  -5.934  -3.180  0.00  0.00    +0.199 HD
ENDBRANCH  16  17
ENDBRANCH  15  16
ENDBRANCH  14  15
ENDBRANCH  13  14
ENDBRANCH   1  13
BRANCH   1  21
ATOM     21  C   UNL     1      -0.546  -2.585  -0.790  0.00  0.00    +0.207 C 
BRANCH  21  22
ATOM     22  C   UNL     1      -1.581  -1.796  -1.503  0.00  0.00    +0.154 A 
ATOM     23  N   UNL     1      -1.440  -1.379  -2.745  0.00  0.00    -0.227 NA
ATOM     24  C   UNL     1      -2.585  -0.666  -3.018  0.00  0.00    +0.089 A 
ATOM     25  C   UNL     1      -2.991  -0.038  -4.203  0.00  0.00    +0.030 A 
ATOM     26  C   UNL     1      -4.213   0.645  -4.212  0.00  0.00    +0.002 A 
ATOM     27  C   UNL     1      -5.008   0.706  -3.065  0.00  0.00    +0.002 A 
ATOM     28  C   UNL     1      -4.619   0.083  -1.874  0.00  0.00    +0.028 A 
ATOM     29  C   UNL     1      -3.403  -0.602  -1.894  0.00  0.00    +0.066 A 
ATOM     30  N   UNL     1      -2.735  -1.321  -0.935  0.00  0.00    -0.338 N 
ATOM     31  H   UNL     1      -3.041  -1.444   0.022  0.00  0.00    +0.167 HD
ENDBRANCH  21  22
ENDBRANCH   1  21
TORSDOF 8
