REMARK  Name = =
REMARK  0 active torsions:
REMARK  status: ('A' for Active; 'I' for Inactive)
REMARK                            x       y       z     vdW  Elec       q    Type
REMARK                         _______ _______ _______ _____ _____    ______ ____
ROOT
ATOM      1  C   UNL     1      19.022  31.768  12.626  0.00  0.00    +0.148 C 
ATOM      2  C   UNL     1      19.196  33.199  12.080  0.00  0.00    +0.157 C 
ATOM      3  N   UNL     1      17.896  33.873  11.921  0.00  0.00    -0.305 N 
ATOM      4  C   UNL     1      17.044  33.904  13.118  0.00  0.00    +0.157 C 
ATOM      5  C   UNL     1      16.829  32.471  13.655  0.00  0.00    +0.148 C 
ATOM      6  N   UNL     1      18.161  31.786  13.876  0.00  0.00    +0.229 N 
ATOM      7  C   UNL     1      17.235  33.621  10.718  0.00  0.00    +0.122 C 
ATOM      8  N   UNL     1      17.514  32.472  10.067  0.00  0.00    -0.232 NA
ATOM      9  C   UNL     1      16.894  32.211   8.897  0.00  0.00    +0.073 C 
ATOM     10  C   UNL     1      17.188  31.040   8.209  0.00  0.00    +0.028 C 
ATOM     11  C   UNL     1      16.572  30.725   6.993  0.00  0.00    +0.002 C 
ATOM     12  C   UNL     1      15.637  31.596   6.445  0.00  0.00    +0.001 C 
ATOM     13  C   UNL     1      15.321  32.775   7.113  0.00  0.00    +0.010 C 
ATOM     14  C   UNL     1      15.944  33.086   8.334  0.00  0.00    +0.001 C 
ATOM     15  C   UNL     1      15.655  34.263   9.027  0.00  0.00    +0.013 C 
ATOM     16  C   UNL     1      16.306  34.530  10.227  0.00  0.00    +0.044 C 
ATOM     17  H   UNL     1      18.000  30.820  14.184  0.00  0.00    +0.201 HD
ATOM     18  H   UNL     1      18.671  32.263  14.629  0.00  0.00    +0.201 HD
ENDROOT
TORSDOF 0
