MODEL 1
REMARK minimizedAffinity -10.0494747
REMARK minimizedRMSD -1
REMARK  Name = 
REMARK  8 active torsions:
REMARK  status: ('A' for Active; 'I' for Inactive)
REMARK    1  A    between atoms: C_1  and  N_2
REMARK    2  A    between atoms: C_3  and  C_5
REMARK    3  A    between atoms: C_5  and  N_6
REMARK    4  A    between atoms: C_9  and  O_12
REMARK    5  A    between atoms: O_12  and  C_13
REMARK    6  A    between atoms: C_14  and  O_32
REMARK    7  A    between atoms: N_23  and  C_24
REMARK    8  A    between atoms: O_32  and  C_33
REMARK                            x       y       z     vdW  Elec       q    Type
REMARK                         _______ _______ _______ _____ _____    ______ ____
ROOT
ATOM      1  C   UNL     1      19.109  35.563  15.434  0.00  0.00    +0.163 A 
ATOM      2  C   UNL     1      18.248  36.006  16.430  0.00  0.00    +0.164 A 
ATOM      3  C   UNL     1      16.885  35.719  16.357  0.00  0.00    +0.078 A 
ATOM      4  C   UNL     1      16.342  35.053  15.267  0.00  0.00    +0.080 A 
ATOM      5  C   UNL     1      17.189  34.664  14.218  0.00  0.00    +0.044 A 
ATOM      6  C   UNL     1      18.578  34.945  14.304  0.00  0.00    +0.062 A 
ATOM      7  C   UNL     1      16.556  34.018  13.139  0.00  0.00    +0.134 A 
ATOM      8  N   UNL     1      15.232  33.785  13.127  0.00  0.00    -0.220 NA
ATOM      9  C   UNL     1      14.531  34.212  14.179  0.00  0.00    +0.223 A 
ATOM     10  N   UNL     1      15.029  34.821  15.260  0.00  0.00    -0.235 NA
ATOM     11  N   UNL     1      17.316  33.576  12.036  0.00  0.00    -0.297 N 
ATOM     12  H   UNL     1      18.139  33.053  12.293  0.00  0.00    +0.154 HD
ENDROOT
BRANCH  11  13
ATOM     13  C   UNL     1      16.886  33.408  10.703  0.00  0.00    +0.070 A 
ATOM     14  C   UNL     1      17.210  32.280   9.929  0.00  0.00    +0.163 A 
ATOM     15  C   UNL     1      16.791  32.175   8.601  0.00  0.00    +0.078 A 
ATOM     16  C   UNL     1      16.040  33.196   8.020  0.00  0.00    +0.023 A 
ATOM     17  C   UNL     1      15.703  34.319   8.774  0.00  0.00    +0.003 A 
ATOM     18  C   UNL     1      16.121  34.423  10.104  0.00  0.00    +0.026 A 
ATOM     19 CL   UNL     1      17.179  30.783   7.665  0.00  0.00    -0.081 Cl
ATOM     20  F   UNL     1      17.878  31.256  10.487  0.00  0.00    -0.202 F 
ENDBRANCH  11  13
BRANCH   2  21
ATOM     21  O   UNL     1      18.711  36.690  17.521  0.00  0.00    -0.491 OA
ATOM     22  C   UNL     1      18.739  35.822  18.659  0.00  0.00    +0.277 C 
ENDBRANCH   2  21
BRANCH   1  23
ATOM     23  O   UNL     1      20.450  35.818  15.468  0.00  0.00    -0.485 OA
BRANCH  23  27
ATOM     24  N   UNL     1      23.791  33.563  14.082  0.00  0.00    +0.242 N 
ATOM     25  C   UNL     1      23.103  34.485  13.098  0.00  0.00    +0.135 C 
ATOM     26  C   UNL     1      22.315  35.524  13.878  0.00  0.00    +0.095 C 
ATOM     27  C   UNL     1      21.307  34.860  14.821  0.00  0.00    +0.184 C 
ATOM     28  C   UNL     1      21.994  33.852  15.752  0.00  0.00    +0.095 C 
ATOM     29  C   UNL     1      22.800  32.836  14.958  0.00  0.00    +0.135 C 
ATOM     30  H   UNL     1      24.364  34.160  14.692  0.00  0.00    +0.204 HD
BRANCH  24  31
ATOM     31  C   UNL     1      24.794  32.609  13.409  0.00  0.00    +0.228 C 
BRANCH  31  34
ATOM     32  C   UNL     1      24.737  32.754  10.430  0.00  0.00    +0.128 C 
ATOM     33  N   UNL     1      24.202  31.646  11.189  0.00  0.00    -0.314 N 
ATOM     34  C   UNL     1      24.183  31.498  12.544  0.00  0.00    +0.258 C 
ATOM     35  O   UNL     1      23.692  30.485  13.039  0.00  0.00    -0.270 OA
ATOM     36  H   UNL     1      23.787  30.872  10.675  0.00  0.00    +0.149 HD
ENDBRANCH  31  34
ENDBRANCH  24  31
ENDBRANCH  23  27
ENDBRANCH   1  23
TORSDOF 6
ENDMDL
MODEL 2
REMARK minimizedAffinity -9.46356201
REMARK minimizedRMSD -1
REMARK  Name = 
REMARK  8 active torsions:
REMARK  status: ('A' for Active; 'I' for Inactive)
REMARK    1  A    between atoms: C_1  and  N_2
REMARK    2  A    between atoms: C_3  and  C_5
REMARK    3  A    between atoms: C_5  and  N_6
REMARK    4  A    between atoms: C_9  and  O_12
REMARK    5  A    between atoms: O_12  and  C_13
REMARK    6  A    between atoms: C_14  and  O_32
REMARK    7  A    between atoms: N_23  and  C_24
REMARK    8  A    between atoms: O_32  and  C_33
REMARK                            x       y       z     vdW  Elec       q    Type
REMARK                         _______ _______ _______ _____ _____    ______ ____
ROOT
ATOM      1  C   UNL     1      16.748  35.265  15.219  0.00  0.00    +0.163 A 
ATOM      2  C   UNL     1      15.582  35.392  15.963  0.00  0.00    +0.164 A 
ATOM      3  C   UNL     1      14.397  34.810  15.514  0.00  0.00    +0.078 A 
ATOM      4  C   UNL     1      14.328  34.156  14.292  0.00  0.00    +0.080 A 
ATOM      5  C   UNL     1      15.481  34.084  13.494  0.00  0.00    +0.044 A 
ATOM      6  C   UNL     1      16.688  34.665  13.962  0.00  0.00    +0.062 A 
ATOM      7  C   UNL     1      15.320  33.429  12.259  0.00  0.00    +0.134 A 
ATOM      8  N   UNL     1      14.142  32.902  11.881  0.00  0.00    -0.220 NA
ATOM      9  C   UNL     1      13.116  33.043  12.722  0.00  0.00    +0.223 A 
ATOM     10  N   UNL     1      13.159  33.632  13.922  0.00  0.00    -0.235 NA
ATOM     11  N   UNL     1      16.417  33.291  11.384  0.00  0.00    -0.297 N 
ATOM     12  H   UNL     1      17.253  32.947  11.831  0.00  0.00    +0.154 HD
ENDROOT
BRANCH  11  13
ATOM     13  C   UNL     1      16.392  33.172   9.979  0.00  0.00    +0.070 A 
ATOM     14  C   UNL     1      17.055  32.145   9.284  0.00  0.00    +0.163 A 
ATOM     15  C   UNL     1      17.031  32.089   7.889  0.00  0.00    +0.078 A 
ATOM     16  C   UNL     1      16.342  33.057   7.160  0.00  0.00    +0.023 A 
ATOM     17  C   UNL     1      15.671  34.078   7.831  0.00  0.00    +0.003 A 
ATOM     18  C   UNL     1      15.694  34.134   9.228  0.00  0.00    +0.026 A 
ATOM     19 CL   UNL     1      17.834  30.819   7.047  0.00  0.00    -0.081 Cl
ATOM     20  F   UNL     1      17.672  31.166   9.967  0.00  0.00    -0.202 F 
ENDBRANCH  11  13
BRANCH   2  21
ATOM     21  O   UNL     1      15.571  36.044  17.167  0.00  0.00    -0.491 OA
ATOM     22  C   UNL     1      14.262  36.562  17.424  0.00  0.00    +0.277 C 
ENDBRANCH   2  21
BRANCH   1  23
ATOM     23  O   UNL     1      17.930  35.815  15.622  0.00  0.00    -0.485 OA
BRANCH  23  27
ATOM     24  N   UNL     1      21.899  34.649  14.593  0.00  0.00    +0.242 N 
ATOM     25  C   UNL     1      21.416  36.005  14.125  0.00  0.00    +0.135 C 
ATOM     26  C   UNL     1      20.236  36.423  14.987  0.00  0.00    +0.095 C 
ATOM     27  C   UNL     1      19.115  35.381  14.931  0.00  0.00    +0.184 C 
ATOM     28  C   UNL     1      19.630  33.986  15.312  0.00  0.00    +0.095 C 
ATOM     29  C   UNL     1      20.828  33.595  14.460  0.00  0.00    +0.135 C 
ATOM     30  H   UNL     1      22.116  34.744  15.594  0.00  0.00    +0.204 HD
BRANCH  24  31
ATOM     31  C   UNL     1      23.226  34.227  13.940  0.00  0.00    +0.228 C 
BRANCH  31  34
ATOM     32  C   UNL     1      24.508  31.801  12.768  0.00  0.00    +0.128 C 
ATOM     33  N   UNL     1      23.775  32.775  11.991  0.00  0.00    -0.314 N 
ATOM     34  C   UNL     1      23.162  33.907  12.440  0.00  0.00    +0.258 C 
ATOM     35  O   UNL     1      22.570  34.635  11.645  0.00  0.00    -0.270 OA
ATOM     36  H   UNL     1      23.690  32.619  10.989  0.00  0.00    +0.149 HD
ENDBRANCH  31  34
ENDBRANCH  24  31
ENDBRANCH  23  27
ENDBRANCH   1  23
TORSDOF 6
ENDMDL
MODEL 3
REMARK minimizedAffinity -9.31579971
REMARK minimizedRMSD -1
REMARK  Name = 
REMARK  8 active torsions:
REMARK  status: ('A' for Active; 'I' for Inactive)
REMARK    1  A    between atoms: C_1  and  N_2
REMARK    2  A    between atoms: C_3  and  C_5
REMARK    3  A    between atoms: C_5  and  N_6
REMARK    4  A    between atoms: C_9  and  O_12
REMARK    5  A    between atoms: O_12  and  C_13
REMARK    6  A    between atoms: C_14  and  O_32
REMARK    7  A    between atoms: N_23  and  C_24
REMARK    8  A    between atoms: O_32  and  C_33
REMARK                            x       y       z     vdW  Elec       q    Type
REMARK                         _______ _______ _______ _____ _____    ______ ____
ROOT
ATOM      1  C   UNL     1      16.280  34.387  13.473  0.00  0.00    +0.163 A 
ATOM      2  C   UNL     1      15.451  34.069  14.542  0.00  0.00    +0.164 A 
ATOM      3  C   UNL     1      15.992  33.851  15.809  0.00  0.00    +0.078 A 
ATOM      4  C   UNL     1      17.363  33.872  16.025  0.00  0.00    +0.080 A 
ATOM      5  C   UNL     1      18.218  34.119  14.939  0.00  0.00    +0.044 A 
ATOM      6  C   UNL     1      17.661  34.356  13.655  0.00  0.00    +0.062 A 
ATOM      7  C   UNL     1      19.593  34.098  15.237  0.00  0.00    +0.134 A 
ATOM      8  N   UNL     1      20.048  33.865  16.481  0.00  0.00    -0.220 NA
ATOM      9  C   UNL     1      19.137  33.635  17.428  0.00  0.00    +0.223 A 
ATOM     10  N   UNL     1      17.810  33.646  17.260  0.00  0.00    -0.235 NA
ATOM     11  N   UNL     1      20.540  34.343  14.221  0.00  0.00    -0.297 N 
ATOM     12  H   UNL     1      20.339  35.160  13.667  0.00  0.00    +0.154 HD
ENDROOT
BRANCH  11  13
ATOM     13  C   UNL     1      21.870  33.878  14.150  0.00  0.00    +0.070 A 
ATOM     14  C   UNL     1      22.261  32.791  13.348  0.00  0.00    +0.163 A 
ATOM     15  C   UNL     1      23.584  32.344  13.338  0.00  0.00    +0.078 A 
ATOM     16  C   UNL     1      24.543  32.976  14.129  0.00  0.00    +0.023 A 
ATOM     17  C   UNL     1      24.177  34.061  14.924  0.00  0.00    +0.003 A 
ATOM     18  C   UNL     1      22.852  34.509  14.933  0.00  0.00    +0.026 A 
ATOM     19 CL   UNL     1      24.057  31.021  12.342  0.00  0.00    -0.081 Cl
ATOM     20  F   UNL     1      21.368  32.208  12.531  0.00  0.00    -0.202 F 
ENDBRANCH  11  13
BRANCH   2  21
ATOM     21  O   UNL     1      14.091  34.007  14.396  0.00  0.00    -0.491 OA
ATOM     22  C   UNL     1      13.456  34.637  15.513  0.00  0.00    +0.277 C 
ENDBRANCH   2  21
BRANCH   1  23
ATOM     23  O   UNL     1      15.793  34.613  12.219  0.00  0.00    -0.485 OA
BRANCH  23  27
ATOM     24  N   UNL     1      16.689  31.892   9.062  0.00  0.00    +0.242 N 
ATOM     25  C   UNL     1      17.407  31.706  10.382  0.00  0.00    +0.135 C 
ATOM     26  C   UNL     1      16.611  32.409  11.470  0.00  0.00    +0.095 C 
ATOM     27  C   UNL     1      16.419  33.892  11.143  0.00  0.00    +0.184 C 
ATOM     28  C   UNL     1      15.780  34.081   9.759  0.00  0.00    +0.095 C 
ATOM     29  C   UNL     1      16.573  33.349   8.687  0.00  0.00    +0.135 C 
ATOM     30  H   UNL     1      15.736  31.529   9.193  0.00  0.00    +0.204 HD
BRANCH  24  31
ATOM     31  C   UNL     1      17.285  31.038   7.930  0.00  0.00    +0.228 C 
BRANCH  31  34
ATOM     32  C   UNL     1      18.079  29.391   5.573  0.00  0.00    +0.128 C 
ATOM     33  N   UNL     1      16.765  29.350   6.173  0.00  0.00    -0.314 N 
ATOM     34  C   UNL     1      16.317  30.065   7.245  0.00  0.00    +0.258 C 
ATOM     35  O   UNL     1      15.162  29.909   7.640  0.00  0.00    -0.270 OA
ATOM     36  H   UNL     1      16.076  28.720   5.769  0.00  0.00    +0.149 HD
ENDBRANCH  31  34
ENDBRANCH  24  31
ENDBRANCH  23  27
ENDBRANCH   1  23
TORSDOF 6
ENDMDL
MODEL 4
REMARK minimizedAffinity -9.17707253
REMARK minimizedRMSD -1
REMARK  Name = 
REMARK  8 active torsions:
REMARK  status: ('A' for Active; 'I' for Inactive)
REMARK    1  A    between atoms: C_1  and  N_2
REMARK    2  A    between atoms: C_3  and  C_5
REMARK    3  A    between atoms: C_5  and  N_6
REMARK    4  A    between atoms: C_9  and  O_12
REMARK    5  A    between atoms: O_12  and  C_13
REMARK    6  A    between atoms: C_14  and  O_32
REMARK    7  A    between atoms: N_23  and  C_24
REMARK    8  A    between atoms: O_32  and  C_33
REMARK                            x       y       z     vdW  Elec       q    Type
REMARK                         _______ _______ _______ _____ _____    ______ ____
ROOT
ATOM      1  C   UNL     1      17.005  33.800  11.329  0.00  0.00    +0.163 A 
ATOM      2  C   UNL     1      15.969  33.486  12.201  0.00  0.00    +0.164 A 
ATOM      3  C   UNL     1      16.237  33.241  13.548  0.00  0.00    +0.078 A 
ATOM      4  C   UNL     1      17.535  33.232  14.039  0.00  0.00    +0.080 A 
ATOM      5  C   UNL     1      18.597  33.474  13.155  0.00  0.00    +0.044 A 
ATOM      6  C   UNL     1      18.319  33.738  11.788  0.00  0.00    +0.062 A 
ATOM      7  C   UNL     1      19.882  33.421  13.726  0.00  0.00    +0.134 A 
ATOM      8  N   UNL     1      20.070  33.164  15.033  0.00  0.00    -0.220 NA
ATOM      9  C   UNL     1      18.980  32.940  15.770  0.00  0.00    +0.223 A 
ATOM     10  N   UNL     1      17.716  32.981  15.335  0.00  0.00    -0.235 NA
ATOM     11  N   UNL     1      21.021  33.659  12.929  0.00  0.00    -0.297 N 
ATOM     12  H   UNL     1      20.951  34.487  12.359  0.00  0.00    +0.154 HD
ENDROOT
BRANCH  11  13
ATOM     13  C   UNL     1      22.329  33.168  13.123  0.00  0.00    +0.070 A 
ATOM     14  C   UNL     1      23.232  33.734  14.041  0.00  0.00    +0.163 A 
ATOM     15  C   UNL     1      24.530  33.235  14.172  0.00  0.00    +0.078 A 
ATOM     16  C   UNL     1      24.951  32.162  13.390  0.00  0.00    +0.023 A 
ATOM     17  C   UNL     1      24.068  31.583  12.480  0.00  0.00    +0.003 A 
ATOM     18  C   UNL     1      22.768  32.081  12.349  0.00  0.00    +0.026 A 
ATOM     19 CL   UNL     1      25.625  33.924  15.310  0.00  0.00    -0.081 Cl
ATOM     20  F   UNL     1      22.828  34.727  14.851  0.00  0.00    -0.202 F 
ENDBRANCH  11  13
BRANCH   2  21
ATOM     21  O   UNL     1      14.667  33.453  11.779  0.00  0.00    -0.491 OA
ATOM     22  C   UNL     1      13.793  33.446  12.912  0.00  0.00    +0.277 C 
ENDBRANCH   2  21
BRANCH   1  23
ATOM     23  O   UNL     1      16.788  34.051  10.005  0.00  0.00    -0.485 OA
BRANCH  23  27
ATOM     24  N   UNL     1      16.185  31.266   6.835  0.00  0.00    +0.242 N 
ATOM     25  C   UNL     1      15.038  32.184   7.198  0.00  0.00    +0.135 C 
ATOM     26  C   UNL     1      15.594  33.381   7.952  0.00  0.00    +0.095 C 
ATOM     27  C   UNL     1      16.370  32.938   9.196  0.00  0.00    +0.184 C 
ATOM     28  C   UNL     1      17.471  31.930   8.837  0.00  0.00    +0.095 C 
ATOM     29  C   UNL     1      16.902  30.753   8.060  0.00  0.00    +0.135 C 
ATOM     30  H   UNL     1      16.855  31.832   6.298  0.00  0.00    +0.204 HD
BRANCH  24  31
ATOM     31  C   UNL     1      15.768  30.135   5.879  0.00  0.00    +0.228 C 
BRANCH  31  34
ATOM     32  C   UNL     1      13.402  29.084   7.360  0.00  0.00    +0.128 C 
ATOM     33  N   UNL     1      14.613  28.326   7.144  0.00  0.00    -0.314 N 
ATOM     34  C   UNL     1      15.738  28.725   6.484  0.00  0.00    +0.258 C 
ATOM     35  O   UNL     1      16.690  27.952   6.381  0.00  0.00    -0.270 OA
ATOM     36  H   UNL     1      14.656  27.379   7.515  0.00  0.00    +0.149 HD
ENDBRANCH  31  34
ENDBRANCH  24  31
ENDBRANCH  23  27
ENDBRANCH   1  23
TORSDOF 6
ENDMDL
MODEL 5
REMARK minimizedAffinity -8.97397137
REMARK minimizedRMSD -1
REMARK  Name = 
REMARK  8 active torsions:
REMARK  status: ('A' for Active; 'I' for Inactive)
REMARK    1  A    between atoms: C_1  and  N_2
REMARK    2  A    between atoms: C_3  and  C_5
REMARK    3  A    between atoms: C_5  and  N_6
REMARK    4  A    between atoms: C_9  and  O_12
REMARK    5  A    between atoms: O_12  and  C_13
REMARK    6  A    between atoms: C_14  and  O_32
REMARK    7  A    between atoms: N_23  and  C_24
REMARK    8  A    between atoms: O_32  and  C_33
REMARK                            x       y       z     vdW  Elec       q    Type
REMARK                         _______ _______ _______ _____ _____    ______ ____
ROOT
ATOM      1  C   UNL     1      18.252  33.469  13.611  0.00  0.00    +0.163 A 
ATOM      2  C   UNL     1      17.697  34.470  14.398  0.00  0.00    +0.164 A 
ATOM      3  C   UNL     1      18.505  35.478  14.924  0.00  0.00    +0.078 A 
ATOM      4  C   UNL     1      19.881  35.472  14.741  0.00  0.00    +0.080 A 
ATOM      5  C   UNL     1      20.465  34.426  14.010  0.00  0.00    +0.044 A 
ATOM      6  C   UNL     1      19.636  33.411  13.464  0.00  0.00    +0.062 A 
ATOM      7  C   UNL     1      21.866  34.480  13.893  0.00  0.00    +0.134 A 
ATOM      8  N   UNL     1      22.588  35.475  14.440  0.00  0.00    -0.220 NA
ATOM      9  C   UNL     1      21.919  36.407  15.120  0.00  0.00    +0.223 A 
ATOM     10  N   UNL     1      20.593  36.462  15.281  0.00  0.00    -0.235 NA
ATOM     11  N   UNL     1      22.555  33.483  13.171  0.00  0.00    -0.297 N 
ATOM     12  H   UNL     1      22.158  33.292  12.264  0.00  0.00    +0.154 HD
ENDROOT
BRANCH  11  13
ATOM     13  C   UNL     1      23.884  33.047  13.353  0.00  0.00    +0.070 A 
ATOM     14  C   UNL     1      24.557  32.232  12.425  0.00  0.00    +0.163 A 
ATOM     15  C   UNL     1      25.861  31.796  12.666  0.00  0.00    +0.078 A 
ATOM     16  C   UNL     1      26.519  32.166  13.837  0.00  0.00    +0.023 A 
ATOM     17  C   UNL     1      25.872  32.980  14.765  0.00  0.00    +0.003 A 
ATOM     18  C   UNL     1      24.566  33.418  14.523  0.00  0.00    +0.026 A 
ATOM     19 CL   UNL     1      26.684  30.809  11.518  0.00  0.00    -0.081 Cl
ATOM     20  F   UNL     1      23.966  31.915  11.261  0.00  0.00    -0.202 F 
ENDBRANCH  11  13
BRANCH   2  21
ATOM     21  O   UNL     1      16.350  34.524  14.640  0.00  0.00    -0.491 OA
ATOM     22  C   UNL     1      16.084  34.108  15.983  0.00  0.00    +0.277 C 
ENDBRANCH   2  21
BRANCH   1  23
ATOM     23  O   UNL     1      17.497  32.467  13.073  0.00  0.00    -0.485 OA
BRANCH  23  27
ATOM     24  N   UNL     1      16.085  31.821   9.103  0.00  0.00    +0.242 N 
ATOM     25  C   UNL     1      17.578  31.958   9.309  0.00  0.00    +0.135 C 
ATOM     26  C   UNL     1      17.894  31.676  10.769  0.00  0.00    +0.095 C 
ATOM     27  C   UNL     1      17.114  32.615  11.694  0.00  0.00    +0.184 C 
ATOM     28  C   UNL     1      15.605  32.546  11.415  0.00  0.00    +0.095 C 
ATOM     29  C   UNL     1      15.309  32.804   9.946  0.00  0.00    +0.135 C 
ATOM     30  H   UNL     1      15.831  30.875   9.417  0.00  0.00    +0.204 HD
BRANCH  24  31
ATOM     31  C   UNL     1      15.678  31.867   7.620  0.00  0.00    +0.228 C 
BRANCH  31  34
ATOM     32  C   UNL     1      13.501  29.831   7.490  0.00  0.00    +0.128 C 
ATOM     33  N   UNL     1      14.781  29.678   6.837  0.00  0.00    -0.314 N 
ATOM     34  C   UNL     1      15.828  30.552   6.844  0.00  0.00    +0.258 C 
ATOM     35  O   UNL     1      16.857  30.274   6.228  0.00  0.00    -0.270 OA
ATOM     36  H   UNL     1      14.944  28.829   6.300  0.00  0.00    +0.149 HD
ENDBRANCH  31  34
ENDBRANCH  24  31
ENDBRANCH  23  27
ENDBRANCH   1  23
TORSDOF 6
ENDMDL
