REMARK  Name = 
REMARK  4 active torsions:
REMARK  status: ('A' for Active; 'I' for Inactive)
REMARK    1  A    between atoms: C_1  and  C_2
REMARK    2  A    between atoms: C_2  and  C_3
REMARK    3  A    between atoms: C_2  and  C_4
REMARK    4  A    between atoms: C_4  and  N_5
REMARK                            x       y       z     vdW  Elec       q    Type
REMARK                         _______ _______ _______ _____ _____    ______ ____
ROOT
ATOM      1  N   UNL     1      -1.495   1.142   0.844  0.00  0.00    -0.329 N 
ATOM      2  C   UNL     1      -1.793  -0.010   1.526  0.00  0.00    +0.200 A 
ATOM      3  N   UNL     1      -2.251   0.234   2.726  0.00  0.00    -0.232 NA
ATOM      4  C   UNL     1      -2.268   1.612   2.828  0.00  0.00    +0.129 A 
ATOM      5  C   UNL     1      -1.803   2.217   1.653  0.00  0.00    +0.081 A 
ATOM      6  C   UNL     1      -1.748   3.636   1.545  0.00  0.00    +0.026 A 
ATOM      7  C   UNL     1      -1.300   4.352   0.411  0.00  0.00    +0.012 A 
ATOM      8  C   UNL     1      -1.289   5.746   0.416  0.00  0.00    +0.001 A 
ATOM      9  C   UNL     1      -1.721   6.433   1.542  0.00  0.00    +0.002 A 
ATOM     10  C   UNL     1      -2.162   5.724   2.663  0.00  0.00    +0.028 A 
ATOM     11  C   UNL     1      -2.188   4.338   2.696  0.00  0.00    +0.075 A 
ATOM     12  N   UNL     1      -2.629   3.753   3.819  0.00  0.00    -0.230 NA
ATOM     13  C   UNL     1      -2.681   2.407   3.917  0.00  0.00    +0.145 A 
ATOM     14  N   UNL     1      -3.145   1.866   5.094  0.00  0.00    -0.341 N 
ATOM     15  H   UNL     1      -3.190   0.861   5.179  0.00  0.00    +0.144 HD
ATOM     16  H   UNL     1      -3.423   2.495   5.828  0.00  0.00    +0.144 HD
ENDROOT
BRANCH   1  17
ATOM     17  C   UNL     1      -0.988   1.137  -0.514  0.00  0.00    +0.126 C 
BRANCH  17  19
ATOM     18  C   UNL     1       1.324   0.177  -0.056  0.00  0.00    +0.009 C 
ATOM     19  C   UNL     1       0.532   1.362  -0.614  0.00  0.00    +0.003 C 
ATOM     20  C   UNL     1       0.924   1.605  -2.073  0.00  0.00    +0.009 C 
ENDBRANCH  17  19
ENDBRANCH   1  17
TORSDOF 2
