MODEL 1
REMARK minimizedAffinity -8.35848904
REMARK minimizedRMSD -1
REMARK  Name = 
REMARK  5 active torsions:
REMARK  status: ('A' for Active; 'I' for Inactive)
REMARK    1  A    between atoms: C_1  and  O_2
REMARK    2  A    between atoms: O_2  and  C_3
REMARK    3  A    between atoms: C_4  and  O_21
REMARK    4  A    between atoms: N_13  and  C_14
REMARK    5  A    between atoms: O_21  and  C_22
REMARK                            x       y       z     vdW  Elec       q    Type
REMARK                         _______ _______ _______ _____ _____    ______ ____
ROOT
ATOM      1  C   UNL     1      15.680  34.119  15.883  0.00  0.00    +0.162 A 
ATOM      2  C   UNL     1      16.760  33.704  16.660  0.00  0.00    +0.164 A 
ATOM      3  C   UNL     1      17.945  33.318  16.032  0.00  0.00    +0.078 A 
ATOM      4  C   UNL     1      18.068  33.284  14.648  0.00  0.00    +0.080 A 
ATOM      5  C   UNL     1      16.975  33.672  13.858  0.00  0.00    +0.044 A 
ATOM      6  C   UNL     1      15.772  34.072  14.493  0.00  0.00    +0.062 A 
ATOM      7  C   UNL     1      17.186  33.624  12.464  0.00  0.00    +0.134 A 
ATOM      8  N   UNL     1      18.347  33.192  11.938  0.00  0.00    -0.220 NA
ATOM      9  C   UNL     1      19.309  32.842  12.794  0.00  0.00    +0.223 A 
ATOM     10  N   UNL     1      19.228  32.878  14.127  0.00  0.00    -0.235 NA
ATOM     11  N   UNL     1      16.159  34.047  11.588  0.00  0.00    -0.299 N 
ATOM     12  H   UNL     1      15.696  34.884  11.914  0.00  0.00    +0.154 HD
ENDROOT
BRANCH  11  13
ATOM     13  C   UNL     1      15.965  33.775  10.221  0.00  0.00    +0.034 A 
ATOM     14  C   UNL     1      16.136  32.500   9.667  0.00  0.00    +0.043 A 
ATOM     15  C   UNL     1      15.921  32.281   8.306  0.00  0.00    +0.043 A 
ATOM     16  C   UNL     1      15.524  33.323   7.473  0.00  0.00    +0.020 A 
ATOM     17  C   UNL     1      15.334  34.594   8.008  0.00  0.00    +0.003 A 
ATOM     18  C   UNL     1      15.547  34.814   9.372  0.00  0.00    +0.023 A 
ATOM     19 CL   UNL     1      16.139  30.705   7.648  0.00  0.00    -0.083 Cl
ENDBRANCH  11  13
BRANCH   1  21
ATOM     20  C   UNL     1      13.484  34.580  15.416  0.00  0.00    +0.277 C 
ATOM     21  O   UNL     1      14.498  34.544  16.423  0.00  0.00    -0.491 OA
ENDBRANCH   1  21
BRANCH   2  22
ATOM     22  O   UNL     1      16.781  33.691  18.029  0.00  0.00    -0.491 OA
ATOM     23  C   UNL     1      17.582  34.728  18.595  0.00  0.00    +0.277 C 
ENDBRANCH   2  22
TORSDOF 3
ENDMDL
MODEL 2
REMARK minimizedAffinity -8.04827213
REMARK minimizedRMSD -1
REMARK  Name = 
REMARK  5 active torsions:
REMARK  status: ('A' for Active; 'I' for Inactive)
REMARK    1  A    between atoms: C_1  and  O_2
REMARK    2  A    between atoms: O_2  and  C_3
REMARK    3  A    between atoms: C_4  and  O_21
REMARK    4  A    between atoms: N_13  and  C_14
REMARK    5  A    between atoms: O_21  and  C_22
REMARK                            x       y       z     vdW  Elec       q    Type
REMARK                         _______ _______ _______ _____ _____    ______ ____
ROOT
ATOM      1  C   UNL     1      21.008  33.261  12.863  0.00  0.00    +0.162 A 
ATOM      2  C   UNL     1      20.596  33.547  14.162  0.00  0.00    +0.164 A 
ATOM      3  C   UNL     1      19.244  33.426  14.492  0.00  0.00    +0.078 A 
ATOM      4  C   UNL     1      18.284  33.079  13.549  0.00  0.00    +0.080 A 
ATOM      5  C   UNL     1      18.688  32.819  12.231  0.00  0.00    +0.044 A 
ATOM      6  C   UNL     1      20.061  32.932  11.894  0.00  0.00    +0.062 A 
ATOM      7  C   UNL     1      17.656  32.458  11.340  0.00  0.00    +0.134 A 
ATOM      8  N   UNL     1      16.368  32.413  11.728  0.00  0.00    -0.220 NA
ATOM      9  C   UNL     1      16.110  32.690  13.008  0.00  0.00    +0.223 A 
ATOM     10  N   UNL     1      17.010  33.011  13.941  0.00  0.00    -0.235 NA
ATOM     11  N   UNL     1      17.974  32.125  10.002  0.00  0.00    -0.299 N 
ATOM     12  H   UNL     1      18.805  31.555   9.934  0.00  0.00    +0.154 HD
ENDROOT
BRANCH  11  13
ATOM     13  C   UNL     1      17.154  32.090   8.858  0.00  0.00    +0.034 A 
ATOM     14  C   UNL     1      17.066  30.971   8.020  0.00  0.00    +0.043 A 
ATOM     15  C   UNL     1      16.230  30.984   6.903  0.00  0.00    +0.043 A 
ATOM     16  C   UNL     1      15.460  32.104   6.604  0.00  0.00    +0.020 A 
ATOM     17  C   UNL     1      15.523  33.220   7.434  0.00  0.00    +0.003 A 
ATOM     18  C   UNL     1      16.359  33.208   8.555  0.00  0.00    +0.023 A 
ATOM     19 CL   UNL     1      16.140  29.597   5.887  0.00  0.00    -0.083 Cl
ENDBRANCH  11  13
BRANCH   1  21
ATOM     20  C   UNL     1      22.936  32.044  12.626  0.00  0.00    +0.277 C 
ATOM     21  O   UNL     1      22.316  33.322  12.470  0.00  0.00    -0.491 OA
ENDBRANCH   1  21
BRANCH   2  22
ATOM     22  O   UNL     1      21.430  33.895  15.191  0.00  0.00    -0.491 OA
ATOM     23  C   UNL     1      21.704  32.820  16.089  0.00  0.00    +0.277 C 
ENDBRANCH   2  22
TORSDOF 3
ENDMDL
MODEL 3
REMARK minimizedAffinity -7.92643261
REMARK minimizedRMSD -1
REMARK  Name = 
REMARK  5 active torsions:
REMARK  status: ('A' for Active; 'I' for Inactive)
REMARK    1  A    between atoms: C_1  and  O_2
REMARK    2  A    between atoms: O_2  and  C_3
REMARK    3  A    between atoms: C_4  and  O_21
REMARK    4  A    between atoms: N_13  and  C_14
REMARK    5  A    between atoms: O_21  and  C_22
REMARK                            x       y       z     vdW  Elec       q    Type
REMARK                         _______ _______ _______ _____ _____    ______ ____
ROOT
ATOM      1  C   UNL     1      19.296  32.905  14.880  0.00  0.00    +0.162 A 
ATOM      2  C   UNL     1      18.722  33.283  16.092  0.00  0.00    +0.164 A 
ATOM      3  C   UNL     1      17.374  33.644  16.125  0.00  0.00    +0.078 A 
ATOM      4  C   UNL     1      16.595  33.690  14.976  0.00  0.00    +0.080 A 
ATOM      5  C   UNL     1      17.174  33.340  13.747  0.00  0.00    +0.044 A 
ATOM      6  C   UNL     1      18.540  32.964  13.710  0.00  0.00    +0.062 A 
ATOM      7  C   UNL     1      16.312  33.397  12.631  0.00  0.00    +0.134 A 
ATOM      8  N   UNL     1      15.035  33.805  12.743  0.00  0.00    -0.220 NA
ATOM      9  C   UNL     1      14.603  34.120  13.966  0.00  0.00    +0.223 A 
ATOM     10  N   UNL     1      15.320  34.072  15.092  0.00  0.00    -0.235 NA
ATOM     11  N   UNL     1      16.792  33.011  11.358  0.00  0.00    -0.299 N 
ATOM     12  H   UNL     1      17.370  32.183  11.400  0.00  0.00    +0.154 HD
ENDROOT
BRANCH  11  13
ATOM     13  C   UNL     1      16.294  33.303  10.075  0.00  0.00    +0.034 A 
ATOM     14  C   UNL     1      16.211  32.347   9.055  0.00  0.00    +0.043 A 
ATOM     15  C   UNL     1      15.699  32.687   7.802  0.00  0.00    +0.043 A 
ATOM     16  C   UNL     1      15.251  33.979   7.543  0.00  0.00    +0.020 A 
ATOM     17  C   UNL     1      15.311  34.938   8.550  0.00  0.00    +0.003 A 
ATOM     18  C   UNL     1      15.822  34.600   9.806  0.00  0.00    +0.023 A 
ATOM     19 CL   UNL     1      15.609  31.493   6.563  0.00  0.00    -0.083 Cl
ENDBRANCH  11  13
BRANCH   1  21
ATOM     20  C   UNL     1      21.184  33.060  13.589  0.00  0.00    +0.277 C 
ATOM     21  O   UNL     1      20.599  32.505  14.769  0.00  0.00    -0.491 OA
ENDBRANCH   1  21
BRANCH   2  22
ATOM     22  O   UNL     1      19.367  33.280  17.299  0.00  0.00    -0.491 OA
ATOM     23  C   UNL     1      19.909  34.550  17.657  0.00  0.00    +0.277 C 
ENDBRANCH   2  22
TORSDOF 3
ENDMDL
MODEL 4
REMARK minimizedAffinity -7.81213665
REMARK minimizedRMSD -1
REMARK  Name = 
REMARK  5 active torsions:
REMARK  status: ('A' for Active; 'I' for Inactive)
REMARK    1  A    between atoms: C_1  and  O_2
REMARK    2  A    between atoms: O_2  and  C_3
REMARK    3  A    between atoms: C_4  and  O_21
REMARK    4  A    between atoms: N_13  and  C_14
REMARK    5  A    between atoms: O_21  and  C_22
REMARK                            x       y       z     vdW  Elec       q    Type
REMARK                         _______ _______ _______ _____ _____    ______ ____
ROOT
ATOM      1  C   UNL     1      15.008  33.921  13.852  0.00  0.00    +0.162 A 
ATOM      2  C   UNL     1      16.009  33.887  14.821  0.00  0.00    +0.164 A 
ATOM      3  C   UNL     1      17.277  33.414  14.476  0.00  0.00    +0.078 A 
ATOM      4  C   UNL     1      17.560  32.926  13.206  0.00  0.00    +0.080 A 
ATOM      5  C   UNL     1      16.549  32.929  12.234  0.00  0.00    +0.044 A 
ATOM      6  C   UNL     1      15.263  33.416  12.578  0.00  0.00    +0.062 A 
ATOM      7  C   UNL     1      16.922  32.432  10.968  0.00  0.00    +0.134 A 
ATOM      8  N   UNL     1      18.155  31.948  10.732  0.00  0.00    -0.220 NA
ATOM      9  C   UNL     1      19.028  31.991  11.742  0.00  0.00    +0.223 A 
ATOM     10  N   UNL     1      18.792  32.468  12.967  0.00  0.00    -0.235 NA
ATOM     11  N   UNL     1      15.984  32.444   9.910  0.00  0.00    -0.299 N 
ATOM     12  H   UNL     1      15.446  33.299   9.882  0.00  0.00    +0.154 HD
ENDROOT
BRANCH  11  13
ATOM     13  C   UNL     1      15.964  31.711   8.708  0.00  0.00    +0.034 A 
ATOM     14  C   UNL     1      17.127  31.331   8.029  0.00  0.00    +0.043 A 
ATOM     15  C   UNL     1      17.052  30.595   6.845  0.00  0.00    +0.043 A 
ATOM     16  C   UNL     1      15.819  30.216   6.322  0.00  0.00    +0.020 A 
ATOM     17  C   UNL     1      14.652  30.571   6.992  0.00  0.00    +0.003 A 
ATOM     18  C   UNL     1      14.726  31.307   8.178  0.00  0.00    +0.023 A 
ATOM     19 CL   UNL     1      18.497  30.141   6.027  0.00  0.00    -0.083 Cl
ENDBRANCH  11  13
BRANCH   1  21
ATOM     20  C   UNL     1      12.778  33.589  13.443  0.00  0.00    +0.277 C 
ATOM     21  O   UNL     1      13.752  34.401  14.101  0.00  0.00    -0.491 OA
ENDBRANCH   1  21
BRANCH   2  22
ATOM     22  O   UNL     1      15.872  34.339  16.106  0.00  0.00    -0.491 OA
ATOM     23  C   UNL     1      16.881  33.852  16.990  0.00  0.00    +0.277 C 
ENDBRANCH   2  22
TORSDOF 3
ENDMDL
MODEL 5
REMARK minimizedAffinity -7.7323041
REMARK minimizedRMSD -1
REMARK  Name = 
REMARK  5 active torsions:
REMARK  status: ('A' for Active; 'I' for Inactive)
REMARK    1  A    between atoms: C_1  and  O_2
REMARK    2  A    between atoms: O_2  and  C_3
REMARK    3  A    between atoms: C_4  and  O_21
REMARK    4  A    between atoms: N_13  and  C_14
REMARK    5  A    between atoms: O_21  and  C_22
REMARK                            x       y       z     vdW  Elec       q    Type
REMARK                         _______ _______ _______ _____ _____    ______ ____
ROOT
ATOM      1  C   UNL     1      16.140  33.186   9.417  0.00  0.00    +0.162 A 
ATOM      2  C   UNL     1      17.229  32.389   9.072  0.00  0.00    +0.164 A 
ATOM      3  C   UNL     1      18.052  31.883  10.080  0.00  0.00    +0.078 A 
ATOM      4  C   UNL     1      17.850  32.192  11.420  0.00  0.00    +0.080 A 
ATOM      5  C   UNL     1      16.773  33.019  11.773  0.00  0.00    +0.044 A 
ATOM      6  C   UNL     1      15.930  33.528  10.752  0.00  0.00    +0.062 A 
ATOM      7  C   UNL     1      16.627  33.272  13.152  0.00  0.00    +0.134 A 
ATOM      8  N   UNL     1      17.496  32.784  14.057  0.00  0.00    -0.220 NA
ATOM      9  C   UNL     1      18.486  32.016  13.596  0.00  0.00    +0.223 A 
ATOM     10  N   UNL     1      18.699  31.687  12.319  0.00  0.00    -0.235 NA
ATOM     11  N   UNL     1      15.540  34.051  13.608  0.00  0.00    -0.299 N 
ATOM     12  H   UNL     1      14.678  33.827  13.130  0.00  0.00    +0.154 HD
ENDROOT
BRANCH  11  13
ATOM     13  C   UNL     1      15.363  34.737  14.825  0.00  0.00    +0.034 A 
ATOM     14  C   UNL     1      16.422  35.321  15.530  0.00  0.00    +0.043 A 
ATOM     15  C   UNL     1      16.191  35.999  16.728  0.00  0.00    +0.043 A 
ATOM     16  C   UNL     1      14.902  36.116  17.241  0.00  0.00    +0.020 A 
ATOM     17  C   UNL     1      13.835  35.555  16.546  0.00  0.00    +0.003 A 
ATOM     18  C   UNL     1      14.065  34.878  15.345  0.00  0.00    +0.023 A 
ATOM     19 CL   UNL     1      17.511  36.708  17.578  0.00  0.00    -0.083 Cl
ENDBRANCH  11  13
BRANCH   1  21
ATOM     20  C   UNL     1      15.148  35.106   8.653  0.00  0.00    +0.277 C 
ATOM     21  O   UNL     1      15.269  33.691   8.492  0.00  0.00    -0.491 OA
ENDBRANCH   1  21
BRANCH   2  22
ATOM     22  O   UNL     1      17.544  32.001   7.797  0.00  0.00    -0.491 OA
ATOM     23  C   UNL     1      16.927  30.774   7.408  0.00  0.00    +0.277 C 
ENDBRANCH   2  22
TORSDOF 3
ENDMDL
