REMARK  Name = =
REMARK  7 active torsions:
REMARK  status: ('A' for Active; 'I' for Inactive)
REMARK    1  A    between atoms: N_1  and  C_5
REMARK    2  A    between atoms: N_1  and  C_13
REMARK    3  A    between atoms: N_1  and  C_21
REMARK    4  A    between atoms: C_13  and  C_14
REMARK    5  A    between atoms: C_15  and  C_16
REMARK    6  A    between atoms: C_16  and  N_17
REMARK    7  A    between atoms: C_21  and  C_22
REMARK                            x       y       z     vdW  Elec       q    Type
REMARK                         _______ _______ _______ _____ _____    ______ ____
ROOT
ATOM      1  N   UNL     1      18.840  33.637  15.901  0.00  0.00    +0.247 N 
ATOM      2  H   UNL     1      18.351  34.294  15.266  0.00  0.00    +0.204 HD
ENDROOT
BRANCH   1   5
ATOM      3  C   UNL     1      19.079  36.222  17.730  0.00  0.00    +0.011 C 
ATOM      4  C   UNL     1      19.050  34.763  18.178  0.00  0.00    +0.061 C 
ATOM      5  C   UNL     1      18.156  33.907  17.259  0.00  0.00    +0.115 C 
ATOM      6  C   UNL     1      16.778  34.565  17.114  0.00  0.00    +0.092 C 
ATOM      7  C   UNL     1      16.592  35.933  17.345  0.00  0.00    -0.021 C 
ATOM      8  C   UNL     1      17.688  36.840  17.838  0.00  0.00    +0.037 C 
ATOM      9  C   UNL     1      15.301  36.453  17.195  0.00  0.00    +0.007 C 
ATOM     10  C   UNL     1      14.252  35.620  16.828  0.00  0.00    +0.020 C 
ATOM     11  C   UNL     1      14.526  34.287  16.609  0.00  0.00    +0.111 C 
ATOM     12  N   UNL     1      15.766  33.748  16.712  0.00  0.00    -0.254 NA
ENDBRANCH   1   5
BRANCH   1  13
ATOM     13  C   UNL     1      20.283  34.001  15.695  0.00  0.00    +0.132 C 
BRANCH  13  14
ATOM     14  C   UNL     1      21.292  32.876  15.981  0.00  0.00    +0.056 C 
ATOM     15  C   UNL     1      22.178  32.410  14.812  0.00  0.00    +0.056 C 
BRANCH  15  16
ATOM     16  C   UNL     1      21.835  32.999  13.440  0.00  0.00    +0.127 C 
BRANCH  16  17
ATOM     17  N   UNL     1      21.490  31.932  12.470  0.00  0.00    +0.219 N 
ATOM     18  H   UNL     1      20.681  31.370  12.781  0.00  0.00    +0.199 HD
ATOM     19  H   UNL     1      21.206  32.340  11.565  0.00  0.00    +0.199 HD
ATOM     20  H   UNL     1      22.255  31.277  12.263  0.00  0.00    +0.199 HD
ENDBRANCH  16  17
ENDBRANCH  15  16
ENDBRANCH  13  14
ENDBRANCH   1  13
BRANCH   1  21
ATOM     21  C   UNL     1      18.430  32.306  15.269  0.00  0.00    +0.207 C 
BRANCH  21  22
ATOM     22  C   UNL     1      17.910  32.568  13.904  0.00  0.00    +0.154 A 
ATOM     23  N   UNL     1      18.467  32.078  12.815  0.00  0.00    -0.227 NA
ATOM     24  C   UNL     1      17.718  32.574  11.772  0.00  0.00    +0.089 A 
ATOM     25  C   UNL     1      17.832  32.343  10.395  0.00  0.00    +0.030 C 
ATOM     26  C   UNL     1      16.940  32.993   9.533  0.00  0.00    +0.002 C 
ATOM     27  C   UNL     1      15.964  33.858  10.031  0.00  0.00    +0.002 C 
ATOM     28  C   UNL     1      15.835  34.099  11.404  0.00  0.00    +0.028 C 
ATOM     29  C   UNL     1      16.727  33.430  12.243  0.00  0.00    +0.066 A 
ATOM     30  N   UNL     1      16.877  33.419  13.607  0.00  0.00    -0.338 N 
ATOM     31  H   UNL     1      16.332  33.970  14.259  0.00  0.00    +0.167 HD
ENDBRANCH  21  22
ENDBRANCH   1  21
TORSDOF 7
