REMARK  Name = =
REMARK  9 active torsions:
REMARK  status: ('A' for Active; 'I' for Inactive)
REMARK    1  A    between atoms: N_1  and  C_2
REMARK    2  A    between atoms: N_1  and  C_26
REMARK    3  A    between atoms: C_4  and  C_10
REMARK    4  A    between atoms: C_12  and  O_24
REMARK    5  A    between atoms: C_13  and  N_16
REMARK    6  A    between atoms: N_19  and  C_22
REMARK    7  A    between atoms: C_26  and  C_27
REMARK    8  A    between atoms: C_26  and  C_33
REMARK    9  A    between atoms: C_33  and  C_35
REMARK                            x       y       z     vdW  Elec       q    Type
REMARK                         _______ _______ _______ _____ _____    ______ ____
ROOT
ATOM      1  C   UNL     1      17.048  32.709  11.898  0.00  0.00    +0.126 C 
ATOM      2  N   UNL     1      18.366  32.785  12.150  0.00  0.00    -0.213 NA
ATOM      3  C   UNL     1      18.763  33.497  13.222  0.00  0.00    +0.162 C 
ATOM      4  N   UNL     1      17.928  34.132  14.059  0.00  0.00    -0.235 NA
ATOM      5  C   UNL     1      16.618  34.009  13.791  0.00  0.00    +0.120 C 
ATOM      6  C   UNL     1      16.105  33.293  12.727  0.00  0.00    +0.007 C 
ATOM      7  C   UNL     1      14.628  33.169  12.552  0.00  0.00    +0.049 C 
ENDROOT
BRANCH   3   8
ATOM      8  C   UNL     1      20.212  33.594  13.488  0.00  0.00    +0.023 C 
ATOM      9  C   UNL     1      20.770  33.145  14.697  0.00  0.00    +0.059 C 
ATOM     10  C   UNL     1      22.145  33.245  14.953  0.00  0.00    +0.142 C 
ATOM     11  C   UNL     1      23.021  33.746  13.981  0.00  0.00    +0.077 C 
ATOM     12  C   UNL     1      22.475  34.237  12.792  0.00  0.00    +0.028 C 
ATOM     13  C   UNL     1      21.097  34.152  12.547  0.00  0.00    +0.013 C 
BRANCH  11  14
ATOM     14  N   UNL     1      24.417  33.864  14.126  0.00  0.00    -0.266 N 
ATOM     15  C   UNL     1      25.390  32.926  14.139  0.00  0.00    +0.304 C 
ATOM     16  O   UNL     1      26.365  33.071  14.879  0.00  0.00    -0.253 OA
ATOM     17  N   UNL     1      25.383  31.893  13.271  0.00  0.00    -0.299 N 
ATOM     18  H   UNL     1      24.760  34.772  14.413  0.00  0.00    +0.156 HD
ATOM     19  H   UNL     1      26.118  31.225  13.460  0.00  0.00    +0.150 HD
BRANCH  17  20
ATOM     20  C   UNL     1      24.616  31.714  12.052  0.00  0.00    +0.102 C 
ATOM     21  C   UNL     1      25.537  31.655  10.844  0.00  0.00    +0.024 C 
ENDBRANCH  17  20
ENDBRANCH  11  14
BRANCH  10  22
ATOM     22  O   UNL     1      22.567  32.838  16.192  0.00  0.00    -0.493 OA
ATOM     23  C   UNL     1      22.443  33.907  17.132  0.00  0.00    +0.277 C 
ENDBRANCH  10  22
ENDBRANCH   3   8
BRANCH   1  24
ATOM     24  N   UNL     1      16.747  31.979  10.765  0.00  0.00    -0.322 N 
ATOM     25  H   UNL     1      17.588  31.486  10.475  0.00  0.00    +0.148 HD
BRANCH  24  26
ATOM     26  C   UNL     1      16.011  32.596   9.658  0.00  0.00    +0.103 C 
BRANCH  26  27
ATOM     27  C   UNL     1      16.195  31.770   8.403  0.00  0.00    -0.009 C 
ATOM     28  C   UNL     1      15.128  31.140   7.768  0.00  0.00    +0.116 C 
ATOM     29  N   UNL     1      15.242  30.367   6.662  0.00  0.00    -0.263 NA
ATOM     30  C   UNL     1      16.481  30.215   6.154  0.00  0.00    +0.111 C 
ATOM     31  C   UNL     1      17.612  30.795   6.701  0.00  0.00    +0.020 C 
ATOM     32  C   UNL     1      17.464  31.579   7.841  0.00  0.00    +0.008 C 
ENDBRANCH  26  27
BRANCH  26  33
ATOM     33  C   UNL     1      16.522  34.046   9.476  0.00  0.00    +0.027 C 
BRANCH  33  35
ATOM     34  C   UNL     1      14.757  34.868   7.822  0.00  0.00    +0.004 C 
ATOM     35  C   UNL     1      15.446  35.091   9.159  0.00  0.00    -0.001 C 
ENDBRANCH  33  35
ENDBRANCH  26  33
ENDBRANCH  24  26
ENDBRANCH   1  24
TORSDOF 9
