REMARK  Name = =
REMARK  6 active torsions:
REMARK  status: ('A' for Active; 'I' for Inactive)
REMARK    1  A    between atoms: C_1  and  N_23
REMARK    2  A    between atoms: C_2  and  O_32
REMARK    3  A    between atoms: N_11  and  C_13
REMARK    4  A    between atoms: C_21  and  C_26
REMARK    5  A    between atoms: C_25  and  C_27
REMARK    6  A    between atoms: C_27  and  N_29
REMARK                            x       y       z     vdW  Elec       q    Type
REMARK                         _______ _______ _______ _____ _____    ______ ____
ROOT
ATOM      1  C   UNL     1      18.315  33.337  11.790  0.00  0.00    +0.077 C 
ATOM      2  C   UNL     1      17.699  33.724  12.946  0.00  0.00    +0.144 C 
ATOM      3  C   UNL     1      18.271  33.541  14.194  0.00  0.00    +0.076 C 
ATOM      4  C   UNL     1      19.560  33.063  14.309  0.00  0.00    +0.080 C 
ATOM      5  C   UNL     1      20.278  32.757  13.140  0.00  0.00    +0.042 C 
ATOM      6  C   UNL     1      19.614  32.829  11.878  0.00  0.00    +0.040 C 
ATOM      7  C   UNL     1      21.643  32.468  13.350  0.00  0.00    +0.134 C 
ATOM      8  N   UNL     1      22.161  32.374  14.590  0.00  0.00    -0.220 NA
ATOM      9  C   UNL     1      21.352  32.620  15.620  0.00  0.00    +0.223 C 
ATOM     10  N   UNL     1      20.073  32.985  15.534  0.00  0.00    -0.235 NA
ATOM     11  N   UNL     1      22.520  32.357  12.244  0.00  0.00    -0.299 N 
ATOM     12  H   UNL     1      22.219  32.887  11.439  0.00  0.00    +0.154 HD
ENDROOT
BRANCH  11  13
ATOM     13  C   UNL     1      23.912  32.116  12.254  0.00  0.00    +0.034 C 
ATOM     14  C   UNL     1      24.654  32.469  13.393  0.00  0.00    +0.046 C 
ATOM     15  C   UNL     1      26.014  32.160  13.481  0.00  0.00    +0.078 C 
ATOM     16  C   UNL     1      26.649  31.510  12.427  0.00  0.00    +0.142 C 
ATOM     17  C   UNL     1      25.939  31.174  11.283  0.00  0.00    +0.041 C 
ATOM     18  C   UNL     1      24.577  31.477  11.199  0.00  0.00    +0.026 C 
ATOM     19  F   UNL     1      27.949  31.192  12.499  0.00  0.00    -0.204 F 
ATOM     20 CL   UNL     1      26.880  32.569  14.912  0.00  0.00    -0.081 Cl
ENDBRANCH  11  13
BRANCH   1  21
ATOM     21  N   UNL     1      17.684  33.584  10.452  0.00  0.00    -0.279 NA
ATOM     22  H   UNL     1      17.208  34.494  10.634  0.00  0.00    +0.155 HD
ENDBRANCH   1  21
BRANCH   2  23
ATOM     23  O   UNL     1      16.542  34.385  12.826  0.00  0.00    -0.485 OA
ATOM     24  C   UNL     1      15.578  33.601  13.527  0.00  0.00    +0.201 C 
ENDBRANCH   2  23
TORSDOF 3
REMARK  Name = =
REMARK  6 active torsions:
REMARK  status: ('A' for Active; 'I' for Inactive)
REMARK    1  A    between atoms: C_1  and  N_23
REMARK    2  A    between atoms: C_2  and  O_32
REMARK    3  A    between atoms: N_11  and  C_13
REMARK    4  A    between atoms: C_21  and  C_26
REMARK    5  A    between atoms: C_25  and  C_27
REMARK    6  A    between atoms: C_27  and  N_29
REMARK                            x       y       z     vdW  Elec       q    Type
REMARK                         _______ _______ _______ _____ _____    ______ ____
ROOT
ATOM      1  C   UNL     1      15.854  29.123   7.165  0.00  0.00    +0.159 C 
ENDROOT
BRANCH   1   3
ATOM      2  C   UNL     1      14.198  28.309   5.405  0.00  0.00    +0.190 C 
ATOM      3  N   UNL     1      14.438  29.159   6.627  0.00  0.00    +0.234 N 
ATOM      4  C   UNL     1      13.443  28.824   7.706  0.00  0.00    +0.190 C 
ATOM      5  H   UNL     1      14.255  30.132   6.348  0.00  0.00    +0.203 HD
ENDBRANCH   1   3
BRANCH   1   6
ATOM      6  C   UNL     1      16.452  30.486   7.293  0.00  0.00    +0.028 C 
ATOM      7  C   UNL     1      16.381  31.299   8.373  0.00  0.00    +0.068 C 
BRANCH   7   8
ATOM      8  C   UNL     1      16.927  32.863   8.795  0.00  0.00    +0.241 C 
ATOM      9  O   UNL     1      16.634  33.466   7.724  0.00  0.00    -0.271 OA
ENDBRANCH   7   8
ENDBRANCH   1   6
TORSDOF 3
REMARK  Name = =
REMARK  6 active torsions:
REMARK  status: ('A' for Active; 'I' for Inactive)
REMARK    1  A    between atoms: C_1  and  N_23
REMARK    2  A    between atoms: C_2  and  O_32
REMARK    3  A    between atoms: N_11  and  C_13
REMARK    4  A    between atoms: C_21  and  C_26
REMARK    5  A    between atoms: C_25  and  C_27
REMARK    6  A    between atoms: C_27  and  N_29
REMARK                            x       y       z     vdW  Elec       q    Type
REMARK                         _______ _______ _______ _____ _____    ______ ____
ROOT
ATOM      1  C   UNL     1      14.112  32.856  12.373  0.00  0.00    +0.075 C 
ENDROOT
TORSDOF 0
REMARK  Name = =
REMARK  6 active torsions:
REMARK  status: ('A' for Active; 'I' for Inactive)
REMARK    1  A    between atoms: C_1  and  N_23
REMARK    2  A    between atoms: C_2  and  O_32
REMARK    3  A    between atoms: N_11  and  C_13
REMARK    4  A    between atoms: C_21  and  C_26
REMARK    5  A    between atoms: C_25  and  C_27
REMARK    6  A    between atoms: C_27  and  N_29
REMARK                            x       y       z     vdW  Elec       q    Type
REMARK                         _______ _______ _______ _____ _____    ______ ____
ROOT
ATOM      1  C   UNL     1      12.352  33.334  13.190  0.00  0.00    +0.163 C 
ENDROOT
TORSDOF 0
REMARK  Name = =
REMARK  6 active torsions:
REMARK  status: ('A' for Active; 'I' for Inactive)
REMARK    1  A    between atoms: C_1  and  N_23
REMARK    2  A    between atoms: C_2  and  O_32
REMARK    3  A    between atoms: N_11  and  C_13
REMARK    4  A    between atoms: C_21  and  C_26
REMARK    5  A    between atoms: C_25  and  C_27
REMARK    6  A    between atoms: C_27  and  N_29
REMARK                            x       y       z     vdW  Elec       q    Type
REMARK                         _______ _______ _______ _____ _____    ______ ____
ROOT
ATOM      1  O   UNL     1      12.733  34.221  14.875  0.00  0.00    -0.376 OA
ENDROOT
TORSDOF 0
REMARK  Name = =
REMARK  6 active torsions:
REMARK  status: ('A' for Active; 'I' for Inactive)
REMARK    1  A    between atoms: C_1  and  N_23
REMARK    2  A    between atoms: C_2  and  O_32
REMARK    3  A    between atoms: N_11  and  C_13
REMARK    4  A    between atoms: C_21  and  C_26
REMARK    5  A    between atoms: C_25  and  C_27
REMARK    6  A    between atoms: C_27  and  N_29
REMARK                            x       y       z     vdW  Elec       q    Type
REMARK                         _______ _______ _______ _____ _____    ______ ____
ROOT
ATOM      1  C   UNL     1      14.646  34.488  15.147  0.00  0.00    +0.204 C 
ENDROOT
TORSDOF 0
