REMARK  Name = =
REMARK  1 active torsions:
REMARK  status: ('A' for Active; 'I' for Inactive)
REMARK    1  A    between atoms: C_7  and  N_15
REMARK                            x       y       z     vdW  Elec       q    Type
REMARK                         _______ _______ _______ _____ _____    ______ ____
ROOT
ATOM      1  C   UNL     1      17.267  33.592  10.490  0.00  0.00    +0.001 C 
ATOM      2  C   UNL     1      15.971  33.460  10.963  0.00  0.00    +0.002 C 
ATOM      3  C   UNL     1      15.090  32.597  10.313  0.00  0.00    +0.028 C 
ATOM      4  C   UNL     1      15.464  31.859   9.198  0.00  0.00    +0.073 A 
ATOM      5  C   UNL     1      16.776  31.978   8.700  0.00  0.00    +0.022 A 
ATOM      6  C   UNL     1      17.666  32.859   9.371  0.00  0.00    +0.012 C 
ATOM      7  C   UNL     1      17.111  31.206   7.551  0.00  0.00    +0.043 A 
ATOM      8  C   UNL     1      16.130  30.349   6.974  0.00  0.00    +0.022 A 
ATOM      9  C   UNL     1      16.343  29.523   5.838  0.00  0.00    +0.012 C 
ATOM     10  C   UNL     1      15.332  28.713   5.321  0.00  0.00    +0.001 C 
ATOM     11  C   UNL     1      14.087  28.707   5.928  0.00  0.00    +0.002 C 
ATOM     12  C   UNL     1      13.866  29.511   7.046  0.00  0.00    +0.028 C 
ATOM     13  C   UNL     1      14.857  30.327   7.577  0.00  0.00    +0.073 A 
ATOM     14  N   UNL     1      14.541  31.061   8.650  0.00  0.00    -0.247 NA
ENDROOT
BRANCH   7  15
ATOM     15  N   UNL     1      18.414  31.240   7.031  0.00  0.00    -0.357 N 
ATOM     16  H   UNL     1      19.099  31.890   7.385  0.00  0.00    +0.142 HD
ATOM     17  H   UNL     1      18.648  30.752   6.181  0.00  0.00    +0.142 HD
ENDBRANCH   7  15
TORSDOF 1
