REMARK  Name = =
REMARK  6 active torsions:
REMARK  status: ('A' for Active; 'I' for Inactive)
REMARK    1  A    between atoms: N_1  and  C_2
REMARK    2  A    between atoms: N_1  and  C_17
REMARK    3  A    between atoms: N_8  and  C_23
REMARK    4  A    between atoms: C_14  and  C_19
REMARK    5  A    between atoms: C_20  and  C_21
REMARK    6  A    between atoms: C_26  and  C_29
REMARK                            x       y       z     vdW  Elec       q    Type
REMARK                         _______ _______ _______ _____ _____    ______ ____
ROOT
ATOM      1  C   UNL     1      20.386  34.507  16.346  0.00  0.00    +0.128 C 
ATOM      2  N   UNL     1      20.223  35.367  17.364  0.00  0.00    -0.199 NA
ATOM      3  C   UNL     1      20.560  34.967  18.597  0.00  0.00    +0.221 C 
ATOM      4  N   UNL     1      21.092  33.764  18.860  0.00  0.00    -0.223 NA
ATOM      5  C   UNL     1      21.256  32.930  17.818  0.00  0.00    +0.118 C 
ATOM      6  C   UNL     1      20.911  33.250  16.531  0.00  0.00    +0.063 C 
ATOM      7  N   UNL     1      20.379  35.791  19.705  0.00  0.00    -0.284 N 
ATOM      8  H   UNL     1      20.761  35.335  20.519  0.00  0.00    +0.155 HD
ENDROOT
BRANCH   7   9
ATOM      9  C   UNL     1      19.732  37.016  19.896  0.00  0.00    +0.034 C 
ATOM     10  C   UNL     1      18.886  37.606  18.949  0.00  0.00    +0.024 C 
ATOM     11  C   UNL     1      18.278  38.846  19.184  0.00  0.00    +0.020 C 
ATOM     12  C   UNL     1      18.515  39.528  20.377  0.00  0.00    +0.052 C 
ATOM     13  C   UNL     1      19.363  38.964  21.331  0.00  0.00    +0.020 C 
ATOM     14  C   UNL     1      19.965  37.723  21.088  0.00  0.00    +0.024 C 
BRANCH  12  15
ATOM     15  C   UNL     1      17.894  40.797  20.620  0.00  0.00    +0.099 C 
ATOM     16  N   UNL     1      17.390  41.824  20.818  0.00  0.00    -0.191 NA
ENDBRANCH  12  15
ENDBRANCH   7   9
BRANCH   1  17
ATOM     17  N   UNL     1      20.003  34.978  15.091  0.00  0.00    -0.299 N 
ATOM     18  H   UNL     1      19.689  35.940  15.156  0.00  0.00    +0.154 HD
BRANCH  17  25
ATOM     19  C   UNL     1      17.170  34.658  14.857  0.00  0.00    +0.046 C 
ATOM     20  C   UNL     1      18.128  34.057  13.862  0.00  0.00    -0.028 C 
ATOM     21  C   UNL     1      17.623  33.244  12.833  0.00  0.00    +0.013 C 
ATOM     22  C   UNL     1      18.480  32.640  11.911  0.00  0.00    -0.024 C 
ATOM     23  C   UNL     1      19.853  32.889  12.003  0.00  0.00    +0.013 C 
ATOM     24  C   UNL     1      20.388  33.680  13.036  0.00  0.00    -0.028 C 
ATOM     25  C   UNL     1      19.518  34.293  13.962  0.00  0.00    +0.038 C 
ATOM     26  C   UNL     1      21.885  33.819  13.113  0.00  0.00    +0.046 C 
BRANCH  22  27
ATOM     27  C   UNL     1      18.008  31.734  10.858  0.00  0.00    +0.019 C 
ATOM     28  C   UNL     1      17.589  32.160   9.657  0.00  0.00    +0.089 C 
BRANCH  28  29
ATOM     29  C   UNL     1      16.937  31.190   8.685  0.00  0.00    +0.091 C 
ATOM     30  N   UNL     1      16.396  30.386   7.878  0.00  0.00    -0.191 NA
ENDBRANCH  28  29
ENDBRANCH  22  27
ENDBRANCH  17  25
ENDBRANCH   1  17
TORSDOF 6
