REMARK  Name = 
REMARK  2 active torsions:
REMARK  status: ('A' for Active; 'I' for Inactive)
REMARK    1  A    between atoms: C_1  and  C_2
REMARK    2  A    between atoms: N_12  and  C_16
REMARK                            x       y       z     vdW  Elec       q    Type
REMARK                         _______ _______ _______ _____ _____    ______ ____
ROOT
ATOM      1  C   UNL     1       0.795  -0.289  -0.066  0.00  0.00    +0.046 C 
ATOM      2  C   UNL     1       0.527   0.720   1.013  0.00  0.00    -0.023 A 
ATOM      3  C   UNL     1      -0.042   0.270   2.230  0.00  0.00    +0.033 A 
ATOM      4  C   UNL     1      -0.342   1.095   3.304  0.00  0.00    +0.073 A 
ATOM      5  C   UNL     1      -0.065   2.466   3.185  0.00  0.00    +0.028 A 
ATOM      6  C   UNL     1      -0.365   3.319   4.261  0.00  0.00    +0.013 A 
ATOM      7  C   UNL     1      -0.926   2.785   5.412  0.00  0.00    +0.020 A 
ATOM      8  C   UNL     1      -1.163   1.422   5.443  0.00  0.00    +0.111 A 
ATOM      9  N   UNL     1      -0.885   0.577   4.422  0.00  0.00    -0.255 NA
ATOM     10  C   UNL     1       0.508   2.972   1.992  0.00  0.00    +0.100 A 
ATOM     11  C   UNL     1       0.797   2.104   0.933  0.00  0.00    +0.073 A 
ATOM     12  N   UNL     1       1.335   2.943  -0.026  0.00  0.00    -0.315 N 
ATOM     13  C   UNL     1       1.333   4.227   0.473  0.00  0.00    +0.194 A 
ATOM     14  N   UNL     1       0.848   4.269   1.684  0.00  0.00    -0.214 NA
ATOM     15  N   UNL     1       1.777   5.284  -0.216  0.00  0.00    -0.329 N 
ATOM     16  C   UNL     1       1.824   2.599  -1.338  0.00  0.00    +0.152 C 
ATOM     17  H   UNL     1       1.739   6.194   0.231  0.00  0.00    +0.145 HD
ATOM     18  H   UNL     1       2.147   5.266  -1.155  0.00  0.00    +0.145 HD
ENDROOT
TORSDOF 0
