REMARK  Name = =
REMARK  8 active torsions:
REMARK  status: ('A' for Active; 'I' for Inactive)
REMARK    1  A    between atoms: N_1  and  C_5
REMARK    2  A    between atoms: N_1  and  C_13
REMARK    3  A    between atoms: N_1  and  C_21
REMARK    4  A    between atoms: C_13  and  C_14
REMARK    5  A    between atoms: C_14  and  C_15
REMARK    6  A    between atoms: C_15  and  C_16
REMARK    7  A    between atoms: C_16  and  N_17
REMARK    8  A    between atoms: C_21  and  C_22
REMARK                            x       y       z     vdW  Elec       q    Type
REMARK                         _______ _______ _______ _____ _____    ______ ____
ROOT
ATOM      1  N   UNL     1      18.281  33.952  14.208  0.00  0.00    +0.247 N 
ATOM      2  H   UNL     1      17.622  34.387  13.537  0.00  0.00    +0.204 HD
ENDROOT
BRANCH   1   5
ATOM      3  C   UNL     1      18.521  33.881  17.372  0.00  0.00    +0.011 C 
ATOM      4  C   UNL     1      18.105  32.744  16.445  0.00  0.00    +0.061 C 
ATOM      5  C   UNL     1      17.333  33.269  15.218  0.00  0.00    +0.115 C 
ATOM      6  C   UNL     1      16.188  34.181  15.674  0.00  0.00    +0.092 C 
ATOM      7  C   UNL     1      16.208  34.812  16.923  0.00  0.00    -0.021 C 
ATOM      8  C   UNL     1      17.290  34.580  17.944  0.00  0.00    +0.037 C 
ATOM      9  C   UNL     1      15.120  35.624  17.264  0.00  0.00    +0.007 C 
ATOM     10  C   UNL     1      14.064  35.785  16.377  0.00  0.00    +0.020 C 
ATOM     11  C   UNL     1      14.131  35.135  15.162  0.00  0.00    +0.111 C 
ATOM     12  N   UNL     1      15.179  34.365  14.779  0.00  0.00    -0.254 NA
ENDBRANCH   1   5
BRANCH   1  13
ATOM     13  C   UNL     1      19.127  35.119  14.633  0.00  0.00    +0.132 C 
BRANCH  13  14
ATOM     14  C   UNL     1      20.642  34.852  14.673  0.00  0.00    +0.056 C 
BRANCH  14  15
ATOM     15  C   UNL     1      21.553  35.852  13.940  0.00  0.00    +0.056 C 
BRANCH  15  16
ATOM     16  C   UNL     1      22.724  35.242  13.162  0.00  0.00    +0.127 C 
BRANCH  16  17
ATOM     17  N   UNL     1      23.642  34.508  14.066  0.00  0.00    +0.219 N 
ATOM     18  H   UNL     1      23.166  33.742  14.567  0.00  0.00    +0.199 HD
ATOM     19  H   UNL     1      24.397  34.054  13.527  0.00  0.00    +0.199 HD
ATOM     20  H   UNL     1      24.107  35.094  14.773  0.00  0.00    +0.199 HD
ENDBRANCH  16  17
ENDBRANCH  15  16
ENDBRANCH  14  15
ENDBRANCH  13  14
ENDBRANCH   1  13
BRANCH   1  21
ATOM     21  C   UNL     1      18.989  32.967  13.277  0.00  0.00    +0.207 C 
BRANCH  21  22
ATOM     22  C   UNL     1      18.294  32.965  11.966  0.00  0.00    +0.154 A 
ATOM     23  N   UNL     1      17.339  33.818  11.656  0.00  0.00    -0.227 NA
ATOM     24  C   UNL     1      16.939  33.466  10.388  0.00  0.00    +0.089 A 
ATOM     25  C   UNL     1      15.986  34.060   9.549  0.00  0.00    +0.030 C 
ATOM     26  C   UNL     1      15.753  33.488   8.293  0.00  0.00    +0.002 C 
ATOM     27  C   UNL     1      16.448  32.346   7.885  0.00  0.00    +0.002 C 
ATOM     28  C   UNL     1      17.404  31.741   8.709  0.00  0.00    +0.028 C 
ATOM     29  C   UNL     1      17.627  32.338   9.951  0.00  0.00    +0.066 A 
ATOM     30  N   UNL     1      18.479  32.029  10.981  0.00  0.00    -0.338 N 
ATOM     31  H   UNL     1      19.104  31.233  11.004  0.00  0.00    +0.167 HD
ENDBRANCH  21  22
ENDBRANCH   1  21
TORSDOF 8
