REMARK  Name = =
REMARK  6 active torsions:
REMARK  status: ('A' for Active; 'I' for Inactive)
REMARK    1  A    between atoms: C_1  and  O_36
REMARK    2  A    between atoms: C_2  and  N_21
REMARK    3  A    between atoms: N_11  and  C_13
REMARK    4  A    between atoms: C_22  and  C_25
REMARK    5  A    between atoms: C_26  and  C_27
REMARK    6  A    between atoms: C_27  and  N_28
REMARK                            x       y       z     vdW  Elec       q    Type
REMARK                         _______ _______ _______ _____ _____    ______ ____
ROOT
ATOM      1  C   UNL     1      17.335  33.715  17.401  0.00  0.00    +0.143 C 
ATOM      2  C   UNL     1      18.278  33.318  16.440  0.00  0.00    +0.077 C 
ATOM      3  C   UNL     1      17.938  33.384  15.091  0.00  0.00    +0.040 C 
ATOM      4  C   UNL     1      16.632  33.749  14.684  0.00  0.00    +0.042 C 
ATOM      5  C   UNL     1      15.671  34.062  15.652  0.00  0.00    +0.080 C 
ATOM      6  C   UNL     1      16.044  34.064  16.992  0.00  0.00    +0.076 C 
ATOM      7  N   UNL     1      14.411  34.361  15.334  0.00  0.00    -0.235 NA
ATOM      8  C   UNL     1      14.091  34.344  14.035  0.00  0.00    +0.223 C 
ATOM      9  N   UNL     1      14.920  34.063  13.024  0.00  0.00    -0.220 NA
ATOM     10  C   UNL     1      16.195  33.800  13.346  0.00  0.00    +0.134 C 
ATOM     11  N   UNL     1      17.136  33.566  12.311  0.00  0.00    -0.299 N 
ATOM     12  H   UNL     1      17.933  34.185  12.419  0.00  0.00    +0.154 HD
ENDROOT
BRANCH  11  13
ATOM     13  C   UNL     1      16.950  33.101  10.996  0.00  0.00    +0.034 C 
ATOM     14  C   UNL     1      16.182  33.876  10.111  0.00  0.00    +0.046 C 
ATOM     15  C   UNL     1      16.049  33.513   8.769  0.00  0.00    +0.078 C 
ATOM     16  C   UNL     1      16.685  32.373   8.292  0.00  0.00    +0.142 C 
ATOM     17  C   UNL     1      17.460  31.598   9.144  0.00  0.00    +0.041 C 
ATOM     18  C   UNL     1      17.601  31.969  10.486  0.00  0.00    +0.026 C 
ATOM     19  F   UNL     1      16.591  32.020   7.003  0.00  0.00    -0.204 F 
ATOM     20 CL   UNL     1      15.135  34.519   7.713  0.00  0.00    -0.081 Cl
ENDBRANCH  11  13
BRANCH   2  21
ATOM     21  N   UNL     1      19.554  32.921  16.889  0.00  0.00    -0.279 N 
ATOM     22  C   UNL     1      20.625  33.633  17.343  0.00  0.00    +0.241 C 
ATOM     23  O   UNL     1      21.548  33.093  17.945  0.00  0.00    -0.271 OA
ATOM     24  H   UNL     1      19.718  31.915  16.864  0.00  0.00    +0.155 HD
BRANCH  22  25
ATOM     25  C   UNL     1      20.721  35.074  16.975  0.00  0.00    +0.068 C 
ATOM     26  C   UNL     1      21.008  35.986  17.917  0.00  0.00    +0.028 C 
BRANCH  26  27
ATOM     27  C   UNL     1      21.236  37.458  17.821  0.00  0.00    +0.160 C 
BRANCH  27  28
ATOM     28  N   UNL     1      20.547  38.403  18.775  0.00  0.00    +0.238 N 
ATOM     29  C   UNL     1      19.053  38.210  18.868  0.00  0.00    +0.131 C 
ATOM     30  C   UNL     1      18.444  39.390  19.615  0.00  0.00    +0.051 C 
ATOM     31  C   UNL     1      19.095  39.591  20.980  0.00  0.00    +0.010 C 
ATOM     32  C   UNL     1      20.608  39.736  20.855  0.00  0.00    +0.051 C 
ATOM     33  C   UNL     1      21.228  38.561  20.111  0.00  0.00    +0.131 C 
ATOM     34  H   UNL     1      20.664  39.316  18.315  0.00  0.00    +0.204 HD
ENDBRANCH  27  28
ENDBRANCH  26  27
ENDBRANCH  22  25
ENDBRANCH   2  21
BRANCH   1  36
ATOM     35  C   UNL     1      17.790  34.921  19.412  0.00  0.00    +0.277 C 
ATOM     36  O   UNL     1      17.771  33.685  18.702  0.00  0.00    -0.493 OA
ENDBRANCH   1  36
TORSDOF 6
