REMARK  Name = =
REMARK  0 active torsions:
REMARK  status: ('A' for Active; 'I' for Inactive)
REMARK                            x       y       z     vdW  Elec       q    Type
REMARK                         _______ _______ _______ _____ _____    ______ ____
ROOT
ATOM      1  C   UNL     1      21.652  32.523  12.762  0.00  0.00    +0.148 C 
ATOM      2  C   UNL     1      21.754  34.061  12.788  0.00  0.00    +0.157 C 
ATOM      3  N   UNL     1      21.401  34.599  14.113  0.00  0.00    -0.305 N 
ATOM      4  C   UNL     1      22.148  34.038  15.247  0.00  0.00    +0.157 C 
ATOM      5  C   UNL     1      22.024  32.498  15.257  0.00  0.00    +0.148 C 
ATOM      6  N   UNL     1      22.438  31.928  13.917  0.00  0.00    +0.229 N 
ATOM      7  C   UNL     1      20.037  34.803  14.332  0.00  0.00    +0.122 C 
ATOM      8  N   UNL     1      19.160  34.066  13.618  0.00  0.00    -0.232 NA
ATOM      9  C   UNL     1      17.838  34.252  13.807  0.00  0.00    +0.073 C 
ATOM     10  C   UNL     1      16.925  33.513  13.063  0.00  0.00    +0.028 C 
ATOM     11  C   UNL     1      15.545  33.671  13.222  0.00  0.00    +0.002 C 
ATOM     12  C   UNL     1      15.054  34.586  14.145  0.00  0.00    +0.001 C 
ATOM     13  C   UNL     1      15.944  35.339  14.906  0.00  0.00    +0.010 C 
ATOM     14  C   UNL     1      17.331  35.177  14.741  0.00  0.00    +0.001 C 
ATOM     15  C   UNL     1      18.250  35.920  15.482  0.00  0.00    +0.013 C 
ATOM     16  C   UNL     1      19.612  35.731  15.275  0.00  0.00    +0.044 C 
ATOM     17  H   UNL     1      22.301  30.910  13.923  0.00  0.00    +0.201 HD
ATOM     18  H   UNL     1      23.439  32.098  13.766  0.00  0.00    +0.201 HD
ENDROOT
TORSDOF 0
