REMARK  Name = =
REMARK  3 active torsions:
REMARK  status: ('A' for Active; 'I' for Inactive)
REMARK    1  A    between atoms: N_1  and  C_17
REMARK    2  A    between atoms: C_13  and  N_14
REMARK    3  A    between atoms: C_17  and  C_19
REMARK                            x       y       z     vdW  Elec       q    Type
REMARK                         _______ _______ _______ _____ _____    ______ ____
ROOT
ATOM      1  N   UNL     1      19.895  33.561  13.583  0.00  0.00    -0.329 N 
ATOM      2  C   UNL     1      20.748  32.926  12.717  0.00  0.00    +0.200 C 
ATOM      3  N   UNL     1      20.108  32.334  11.743  0.00  0.00    -0.232 NA
ATOM      4  C   UNL     1      18.773  32.608  11.974  0.00  0.00    +0.129 A 
ATOM      5  C   UNL     1      18.604  33.388  13.126  0.00  0.00    +0.081 A 
ATOM      6  C   UNL     1      17.302  33.791  13.539  0.00  0.00    +0.026 A 
ATOM      7  C   UNL     1      17.015  34.577  14.679  0.00  0.00    +0.012 C 
ATOM      8  C   UNL     1      15.698  34.913  14.990  0.00  0.00    +0.001 C 
ATOM      9  C   UNL     1      14.665  34.473  14.174  0.00  0.00    +0.002 C 
ATOM     10  C   UNL     1      14.951  33.695  13.048  0.00  0.00    +0.028 C 
ATOM     11  C   UNL     1      16.247  33.340  12.706  0.00  0.00    +0.075 A 
ATOM     12  N   UNL     1      16.415  32.592  11.607  0.00  0.00    -0.230 NA
ATOM     13  C   UNL     1      17.651  32.212  11.217  0.00  0.00    +0.145 A 
ENDROOT
BRANCH  13  14
ATOM     14  N   UNL     1      17.760  31.447  10.079  0.00  0.00    -0.341 N 
ATOM     15  H   UNL     1      18.678  31.158   9.776  0.00  0.00    +0.144 HD
ATOM     16  H   UNL     1      16.915  31.203   9.589  0.00  0.00    +0.144 HD
ENDBRANCH  13  14
BRANCH   1  17
ATOM     17  C   UNL     1      20.363  34.304  14.736  0.00  0.00    +0.126 C 
BRANCH  17  19
ATOM     18  C   UNL     1      20.043  36.783  15.217  0.00  0.00    +0.009 C 
ATOM     19  C   UNL     1      20.819  35.738  14.411  0.00  0.00    +0.003 C 
ATOM     20  C   UNL     1      22.318  35.880  14.689  0.00  0.00    +0.009 C 
ENDBRANCH  17  19
ENDBRANCH   1  17
TORSDOF 3
