REMARK  Name = =
REMARK  6 active torsions:
REMARK  status: ('A' for Active; 'I' for Inactive)
REMARK    1  A    between atoms: C_1  and  N_19
REMARK    2  A    between atoms: N_11  and  C_22
REMARK    3  A    between atoms: C_17  and  N_19
REMARK    4  A    between atoms: C_25  and  O_29
REMARK    5  A    between atoms: O_29  and  C_30
REMARK    6  A    between atoms: C_30  and  C_31
REMARK                            x       y       z     vdW  Elec       q    Type
REMARK                         _______ _______ _______ _____ _____    ______ ____
ROOT
ATOM      1  C   UNL     1      16.673  32.515  10.871  0.00  0.00    +0.040 C 
ATOM      2  C   UNL     1      17.590  33.022  11.799  0.00  0.00    +0.037 C 
ATOM      3  C   UNL     1      17.172  33.713  12.969  0.00  0.00    +0.042 C 
ATOM      4  C   UNL     1      15.805  33.870  13.222  0.00  0.00    +0.076 C 
ATOM      5  C   UNL     1      14.901  33.353  12.306  0.00  0.00    +0.030 C 
ATOM      6  C   UNL     1      15.317  32.676  11.151  0.00  0.00    +0.025 C 
ATOM      7  N   UNL     1      15.328  34.468  14.310  0.00  0.00    -0.235 NA
ATOM      8  C   UNL     1      16.227  34.910  15.197  0.00  0.00    +0.223 C 
ATOM      9  N   UNL     1      17.552  34.818  15.070  0.00  0.00    -0.220 NA
ATOM     10  C   UNL     1      18.027  34.242  13.953  0.00  0.00    +0.134 C 
ATOM     11  N   UNL     1      19.426  34.185  13.773  0.00  0.00    -0.299 N 
ATOM     12  H   UNL     1      19.726  34.603  12.903  0.00  0.00    +0.154 HD
ENDROOT
BRANCH  11  13
ATOM     13  C   UNL     1      20.422  34.142  14.768  0.00  0.00    +0.034 C 
ATOM     14  C   UNL     1      21.200  35.264  15.089  0.00  0.00    +0.047 C 
ATOM     15  C   UNL     1      22.182  35.199  16.082  0.00  0.00    +0.084 C 
ATOM     16  C   UNL     1      22.425  33.993  16.742  0.00  0.00    +0.139 C 
ATOM     17  C   UNL     1      21.625  32.883  16.468  0.00  0.00    +0.049 C 
ATOM     18  C   UNL     1      20.632  32.958  15.488  0.00  0.00    +0.027 C 
ATOM     19 CL   UNL     1      23.021  36.653  16.491  0.00  0.00    -0.080 Cl
BRANCH  16  20
ATOM     20  O   UNL     1      23.370  33.841  17.723  0.00  0.00    -0.484 OA
BRANCH  20  21
ATOM     21  C   UNL     1      22.811  33.365  18.963  0.00  0.00    +0.291 C 
BRANCH  21  22
ATOM     22  C   UNL     1      22.677  34.501  19.937  0.00  0.00    +0.116 C 
ATOM     23  N   UNL     1      21.755  35.442  19.856  0.00  0.00    -0.249 NA
ATOM     24  C   UNL     1      21.891  36.321  20.911  0.00  0.00    +0.119 C 
ATOM     25  C   UNL     1      22.920  36.047  21.785  0.00  0.00    +0.066 C 
ATOM     26  S   UNL     1      23.751  34.637  21.276  0.00  0.00    -0.077 S 
ENDBRANCH  21  22
ENDBRANCH  20  21
ENDBRANCH  16  20
ENDBRANCH  11  13
BRANCH   1  27
ATOM     27  N   UNL     1      17.154  31.817   9.809  0.00  0.00    -0.229 N 
ATOM     28  H   UNL     1      18.149  31.620   9.756  0.00  0.00    +0.161 HD
BRANCH  27  33
ATOM     29  C   UNL     1      13.662  30.127   7.206  0.00  0.00    +0.089 C 
ATOM     30  C   UNL     1      14.981  30.864   7.167  0.00  0.00    +0.299 C 
ATOM     31  C   UNL     1      16.198  29.958   7.106  0.00  0.00    +0.311 C 
ATOM     32  O   UNL     1      17.184  30.590   7.944  0.00  0.00    -0.425 OA
ATOM     33  C   UNL     1      16.478  31.354   8.787  0.00  0.00    +0.444 C 
ATOM     34  N   UNL     1      15.225  31.546   8.428  0.00  0.00    -0.190 NA
ATOM     35  H   UNL     1      14.617  32.193   8.908  0.00  0.00    +0.451 HD
ENDBRANCH  27  33
ENDBRANCH   1  27
TORSDOF 6
