REMARK  Name = =
REMARK  2 active torsions:
REMARK  status: ('A' for Active; 'I' for Inactive)
REMARK    1  A    between atoms: C_3  and  N_18
REMARK    2  A    between atoms: C_11  and  N_15
REMARK                            x       y       z     vdW  Elec       q    Type
REMARK                         _______ _______ _______ _____ _____    ______ ____
ROOT
ATOM      1  C   UNL     1      15.095  32.987  11.985  0.00  0.00    +0.012 C 
ATOM      2  C   UNL     1      15.819  32.427  10.933  0.00  0.00    +0.023 C 
ATOM      3  C   UNL     1      17.204  32.559  10.884  0.00  0.00    +0.027 C 
ATOM      4  C   UNL     1      17.852  33.239  11.923  0.00  0.00    +0.051 C 
ATOM      5  C   UNL     1      17.159  33.809  12.988  0.00  0.00    +0.073 C 
ATOM      6  N   UNL     1      17.834  34.461  13.955  0.00  0.00    -0.247 NA
ATOM      7  C   UNL     1      17.155  35.009  14.982  0.00  0.00    +0.073 C 
ATOM      8  C   UNL     1      15.755  34.924  15.086  0.00  0.00    +0.001 C 
ATOM      9  C   UNL     1      15.088  35.508  16.173  0.00  0.00    +0.012 C 
ATOM     10  C   UNL     1      15.808  36.179  17.160  0.00  0.00    +0.023 C 
ATOM     11  C   UNL     1      17.195  36.274  17.076  0.00  0.00    +0.027 C 
ATOM     12  C   UNL     1      17.844  35.685  15.985  0.00  0.00    +0.051 C 
ATOM     13  C   UNL     1      15.062  34.246  14.080  0.00  0.00    +0.020 C 
ATOM     14  C   UNL     1      15.759  33.677  13.010  0.00  0.00    +0.001 C 
ENDROOT
BRANCH  11  15
ATOM     15  N   UNL     1      17.911  36.940  18.052  0.00  0.00    -0.358 N 
ATOM     16  H   UNL     1      17.443  37.364  18.841  0.00  0.00    +0.142 HD
ATOM     17  H   UNL     1      18.918  37.010  17.995  0.00  0.00    +0.142 HD
ENDBRANCH  11  15
BRANCH   3  18
ATOM     18  N   UNL     1      17.929  31.958   9.872  0.00  0.00    -0.358 N 
ATOM     19  H   UNL     1      18.924  32.121   9.794  0.00  0.00    +0.142 HD
ATOM     20  H   UNL     1      17.455  31.540   9.082  0.00  0.00    +0.142 HD
ENDBRANCH   3  18
TORSDOF 2
