REMARK  Name = =
REMARK  11 active torsions:
REMARK  status: ('A' for Active; 'I' for Inactive)
REMARK    1  A    between atoms: C_1  and  C_2
REMARK    2  A    between atoms: C_1  and  C_6
REMARK    3  A    between atoms: C_2  and  C_3
REMARK    4  A    between atoms: C_3  and  O_24
REMARK    5  A    between atoms: C_4  and  C_5
REMARK    6  A    between atoms: C_8  and  C_19
REMARK    7  A    between atoms: C_16  and  C_17
REMARK    8  A    between atoms: C_18  and  C_19
REMARK    9  A    between atoms: C_20  and  C_21
REMARK   10  A    between atoms: O_24  and  C_25
REMARK   11  A    between atoms: C_28  and  C_32
REMARK                            x       y       z     vdW  Elec       q    Type
REMARK                         _______ _______ _______ _____ _____    ______ ____
ROOT
ATOM      1  C   UNL     1      20.229  34.877  14.264  0.00  0.00    +0.038 C 
ATOM      2  C   UNL     1      21.668  32.970  15.267  0.00  0.00    +0.257 C 
ATOM      3  O   UNL     1      21.941  31.773  15.176  0.00  0.00    -0.270 OA
ATOM      4  N   UNL     1      22.621  33.924  14.916  0.00  0.00    -0.236 N 
ATOM      5  C   UNL     1      22.557  34.832  13.879  0.00  0.00    +0.310 C 
ATOM      6  O   UNL     1      23.558  35.123  13.231  0.00  0.00    -0.252 OA
ATOM      7  N   UNL     1      21.322  35.285  13.517  0.00  0.00    -0.269 N 
ATOM      8  H   UNL     1      23.561  33.550  14.963  0.00  0.00    +0.159 HD
ATOM      9  H   UNL     1      21.227  35.611  12.564  0.00  0.00    +0.156 HD
ENDROOT
BRANCH   1  11
ATOM     10  C   UNL     1      17.753  36.198  15.567  0.00  0.00    +0.025 C 
ATOM     11  C   UNL     1      19.463  36.169  15.208  0.00  0.00    +0.025 C 
BRANCH  10  12
ATOM     12  C   UNL     1      16.706  34.866  14.945  0.00  0.00    +0.083 C 
ATOM     13 CL   UNL     1      15.037  35.417  15.547  0.00  0.00    -0.080 Cl
ENDBRANCH  10  12
ENDBRANCH   1  11
BRANCH   1  14
ATOM     14  C   UNL     1      19.366  33.502  13.592  0.00  0.00    +0.071 C 
BRANCH  14  15
ATOM     15  C   UNL     1      17.591  33.379  13.880  0.00  0.00    +0.150 C 
BRANCH  15  16
ATOM     16  O   UNL     1      17.117  32.287  13.106  0.00  0.00    -0.435 OA
BRANCH  16  17
ATOM     17  C   UNL     1      16.919  32.445  11.736  0.00  0.00    +0.239 C 
ATOM     18  C   UNL     1      15.690  32.957  11.327  0.00  0.00    +0.103 C 
ATOM     19  C   UNL     1      15.436  33.057   9.960  0.00  0.00    +0.039 C 
ATOM     20  C   UNL     1      16.404  32.636   9.039  0.00  0.00    +0.074 C 
ATOM     21  C   UNL     1      17.598  32.140   9.544  0.00  0.00    +0.127 C 
ATOM     22  N   UNL     1      17.872  32.031  10.864  0.00  0.00    -0.219 NA
ATOM     23 CL   UNL     1      14.479  33.459  12.443  0.00  0.00    -0.078 Cl
BRANCH  20  24
ATOM     24  C   UNL     1      16.168  32.719   7.562  0.00  0.00    +0.419 C 
ATOM     25  F   UNL     1      17.326  32.670   6.851  0.00  0.00    -0.166 F 
ATOM     26  F   UNL     1      15.386  31.715   7.080  0.00  0.00    -0.166 F 
ATOM     27  F   UNL     1      15.552  33.878   7.200  0.00  0.00    -0.166 F 
ENDBRANCH  20  24
ENDBRANCH  16  17
ENDBRANCH  15  16
ENDBRANCH  14  15
ENDBRANCH   1  14
BRANCH   2  28
ATOM     28  C   UNL     1      20.330  33.378  15.956  0.00  0.00    +0.107 C 
BRANCH  28  30
ATOM     29  C   UNL     1      19.702  35.577  18.019  0.00  0.00    +0.039 C 
ATOM     30  C   UNL     1      20.862  34.770  16.974  0.00  0.00    +0.138 C 
ATOM     31  F   UNL     1      22.118  35.228  16.911  0.00  0.00    -0.205 F 
BRANCH  29  32
ATOM     32  C   UNL     1      17.990  35.083  18.129  0.00  0.00    +0.006 C 
ATOM     33  C   UNL     1      17.307  33.742  17.219  0.00  0.00    +0.039 C 
BRANCH  33  34
ATOM     34  C   UNL     1      18.382  32.829  16.102  0.00  0.00    +0.138 C 
ATOM     35  F   UNL     1      17.663  31.842  15.491  0.00  0.00    -0.205 F 
ENDBRANCH  33  34
ENDBRANCH  29  32
ENDBRANCH  28  30
ENDBRANCH   2  28
TORSDOF 11
