REMARK  Name = =
REMARK  0 active torsions:
REMARK  status: ('A' for Active; 'I' for Inactive)
REMARK                            x       y       z     vdW  Elec       q    Type
REMARK                         _______ _______ _______ _____ _____    ______ ____
ROOT
ATOM      1  C   UNL     1      15.968  34.117  17.451  0.00  0.00    +0.152 C 
ATOM      2  N   UNL     1      15.657  34.100  16.043  0.00  0.00    -0.315 N 
ATOM      3  C   UNL     1      16.520  33.780  15.020  0.00  0.00    +0.070 A 
ATOM      4  C   UNL     1      15.747  33.912  13.869  0.00  0.00    +0.100 A 
ATOM      5  C   UNL     1      16.337  33.650  12.608  0.00  0.00    +0.028 C 
ATOM      6  C   UNL     1      17.690  33.263  12.532  0.00  0.00    +0.073 C 
ATOM      7  C   UNL     1      18.416  33.147  13.711  0.00  0.00    +0.030 C 
ATOM      8  C   UNL     1      17.865  33.399  14.977  0.00  0.00    +0.030 C 
ATOM      9  N   UNL     1      18.284  33.006  11.352  0.00  0.00    -0.255 NA
ATOM     10  C   UNL     1      17.540  33.131  10.227  0.00  0.00    +0.111 C 
ATOM     11  C   UNL     1      16.207  33.505  10.210  0.00  0.00    +0.020 C 
ATOM     12  C   UNL     1      15.591  33.770  11.424  0.00  0.00    +0.013 C 
ATOM     13  N   UNL     1      14.463  34.299  14.186  0.00  0.00    -0.214 NA
ATOM     14  C   UNL     1      14.436  34.406  15.490  0.00  0.00    +0.194 A 
ATOM     15  N   UNL     1      13.375  34.767  16.219  0.00  0.00    -0.329 N 
ATOM     16  H   UNL     1      12.510  34.976  15.734  0.00  0.00    +0.145 HD
ATOM     17  H   UNL     1      13.352  34.854  17.225  0.00  0.00    +0.145 HD
ENDROOT
TORSDOF 0
