MODEL 1
REMARK minimizedAffinity -7.60090113
REMARK minimizedRMSD -1
REMARK  Name = 
REMARK  1 active torsions:
REMARK  status: ('A' for Active; 'I' for Inactive)
REMARK    1  A    between atoms: C_7  and  N_15
REMARK                            x       y       z     vdW  Elec       q    Type
REMARK                         _______ _______ _______ _____ _____    ______ ____
ROOT
ATOM      1  C   UNL     1      15.326  28.794   5.270  0.00  0.00    +0.001 A 
ATOM      2  C   UNL     1      14.083  28.803   5.880  0.00  0.00    +0.002 A 
ATOM      3  C   UNL     1      13.882  29.587   7.015  0.00  0.00    +0.028 A 
ATOM      4  C   UNL     1      14.892  30.365   7.564  0.00  0.00    +0.073 A 
ATOM      5  C   UNL     1      16.165  30.371   6.961  0.00  0.00    +0.022 A 
ATOM      6  C   UNL     1      16.357  29.570   5.804  0.00  0.00    +0.012 A 
ATOM      7  C   UNL     1      17.170  31.181   7.564  0.00  0.00    +0.043 A 
ATOM      8  C   UNL     1      16.849  31.949   8.720  0.00  0.00    +0.022 A 
ATOM      9  C   UNL     1      17.757  32.800   9.405  0.00  0.00    +0.012 A 
ATOM     10  C   UNL     1      17.374  33.519  10.538  0.00  0.00    +0.001 A 
ATOM     11  C   UNL     1      16.078  33.406  11.011  0.00  0.00    +0.002 A 
ATOM     12  C   UNL     1      15.176  32.575  10.346  0.00  0.00    +0.028 A 
ATOM     13  C   UNL     1      15.534  31.849   9.217  0.00  0.00    +0.073 A 
ATOM     14  N   UNL     1      14.594  31.081   8.655  0.00  0.00    -0.247 NA
ENDROOT
BRANCH   7  15
ATOM     15  N   UNL     1      18.446  31.270   6.988  0.00  0.00    -0.357 N 
ATOM     16  H   UNL     1      18.709  30.683   6.212  0.00  0.00    +0.142 HD
ATOM     17  H   UNL     1      19.186  31.784   7.439  0.00  0.00    +0.142 HD
ENDBRANCH   7  15
TORSDOF 1
ENDMDL
MODEL 2
REMARK minimizedAffinity -7.57454729
REMARK minimizedRMSD -1
REMARK  Name = 
REMARK  1 active torsions:
REMARK  status: ('A' for Active; 'I' for Inactive)
REMARK    1  A    between atoms: C_7  and  N_15
REMARK                            x       y       z     vdW  Elec       q    Type
REMARK                         _______ _______ _______ _____ _____    ______ ____
ROOT
ATOM      1  C   UNL     1      17.267  33.592  10.490  0.00  0.00    +0.001 A 
ATOM      2  C   UNL     1      15.971  33.460  10.963  0.00  0.00    +0.002 A 
ATOM      3  C   UNL     1      15.090  32.597  10.313  0.00  0.00    +0.028 A 
ATOM      4  C   UNL     1      15.464  31.859   9.198  0.00  0.00    +0.073 A 
ATOM      5  C   UNL     1      16.776  31.978   8.700  0.00  0.00    +0.022 A 
ATOM      6  C   UNL     1      17.666  32.859   9.371  0.00  0.00    +0.012 A 
ATOM      7  C   UNL     1      17.111  31.206   7.551  0.00  0.00    +0.043 A 
ATOM      8  C   UNL     1      16.130  30.349   6.974  0.00  0.00    +0.022 A 
ATOM      9  C   UNL     1      16.343  29.523   5.838  0.00  0.00    +0.012 A 
ATOM     10  C   UNL     1      15.332  28.713   5.321  0.00  0.00    +0.001 A 
ATOM     11  C   UNL     1      14.087  28.707   5.928  0.00  0.00    +0.002 A 
ATOM     12  C   UNL     1      13.866  29.511   7.046  0.00  0.00    +0.028 A 
ATOM     13  C   UNL     1      14.857  30.327   7.577  0.00  0.00    +0.073 A 
ATOM     14  N   UNL     1      14.541  31.061   8.650  0.00  0.00    -0.247 NA
ENDROOT
BRANCH   7  15
ATOM     15  N   UNL     1      18.414  31.240   7.031  0.00  0.00    -0.357 N 
ATOM     16  H   UNL     1      19.099  31.890   7.385  0.00  0.00    +0.142 HD
ATOM     17  H   UNL     1      18.648  30.752   6.181  0.00  0.00    +0.142 HD
ENDBRANCH   7  15
TORSDOF 1
ENDMDL
MODEL 3
REMARK minimizedAffinity -7.27396822
REMARK minimizedRMSD -1
REMARK  Name = 
REMARK  1 active torsions:
REMARK  status: ('A' for Active; 'I' for Inactive)
REMARK    1  A    between atoms: C_7  and  N_15
REMARK                            x       y       z     vdW  Elec       q    Type
REMARK                         _______ _______ _______ _____ _____    ______ ____
ROOT
ATOM      1  C   UNL     1      15.533  35.966  17.193  0.00  0.00    +0.001 A 
ATOM      2  C   UNL     1      14.232  35.665  16.824  0.00  0.00    +0.002 A 
ATOM      3  C   UNL     1      13.997  35.008  15.617  0.00  0.00    +0.028 A 
ATOM      4  C   UNL     1      15.028  34.642  14.761  0.00  0.00    +0.073 A 
ATOM      5  C   UNL     1      16.358  34.937  15.117  0.00  0.00    +0.022 A 
ATOM      6  C   UNL     1      16.586  35.605  16.349  0.00  0.00    +0.012 A 
ATOM      7  C   UNL     1      17.380  34.547  14.204  0.00  0.00    +0.043 A 
ATOM      8  C   UNL     1      17.023  33.872  13.002  0.00  0.00    +0.022 A 
ATOM      9  C   UNL     1      17.946  33.423  12.019  0.00  0.00    +0.012 A 
ATOM     10  C   UNL     1      17.524  32.774  10.859  0.00  0.00    +0.001 A 
ATOM     11  C   UNL     1      16.173  32.555  10.654  0.00  0.00    +0.002 A 
ATOM     12  C   UNL     1      15.255  32.989  11.612  0.00  0.00    +0.028 A 
ATOM     13  C   UNL     1      15.652  33.639  12.774  0.00  0.00    +0.073 A 
ATOM     14  N   UNL     1      14.693  34.015  13.627  0.00  0.00    -0.247 NA
ENDROOT
BRANCH   7  15
ATOM     15  N   UNL     1      18.730  34.768  14.517  0.00  0.00    -0.357 N 
ATOM     16  H   UNL     1      18.995  35.303  15.329  0.00  0.00    +0.142 HD
ATOM     17  H   UNL     1      19.459  34.559  13.853  0.00  0.00    +0.142 HD
ENDBRANCH   7  15
TORSDOF 1
ENDMDL
MODEL 4
REMARK minimizedAffinity -7.24964523
REMARK minimizedRMSD -1
REMARK  Name = 
REMARK  1 active torsions:
REMARK  status: ('A' for Active; 'I' for Inactive)
REMARK    1  A    between atoms: C_7  and  N_15
REMARK                            x       y       z     vdW  Elec       q    Type
REMARK                         _______ _______ _______ _____ _____    ______ ____
ROOT
ATOM      1  C   UNL     1      17.619  32.717  10.940  0.00  0.00    +0.001 A 
ATOM      2  C   UNL     1      16.265  32.526  10.721  0.00  0.00    +0.002 A 
ATOM      3  C   UNL     1      15.346  32.997  11.658  0.00  0.00    +0.028 A 
ATOM      4  C   UNL     1      15.741  33.653  12.816  0.00  0.00    +0.073 A 
ATOM      5  C   UNL     1      17.114  33.858  13.060  0.00  0.00    +0.022 A 
ATOM      6  C   UNL     1      18.040  33.376  12.097  0.00  0.00    +0.012 A 
ATOM      7  C   UNL     1      17.470  34.531  14.263  0.00  0.00    +0.043 A 
ATOM      8  C   UNL     1      16.444  34.976  15.146  0.00  0.00    +0.022 A 
ATOM      9  C   UNL     1      16.669  35.665  16.368  0.00  0.00    +0.012 A 
ATOM     10  C   UNL     1      15.614  36.066  17.188  0.00  0.00    +0.001 A 
ATOM     11  C   UNL     1      14.312  35.790  16.806  0.00  0.00    +0.002 A 
ATOM     12  C   UNL     1      14.077  35.115  15.608  0.00  0.00    +0.028 A 
ATOM     13  C   UNL     1      15.111  34.705  14.776  0.00  0.00    +0.073 A 
ATOM     14  N   UNL     1      14.779  34.064  13.650  0.00  0.00    -0.247 NA
ENDROOT
BRANCH   7  15
ATOM     15  N   UNL     1      18.815  34.809  14.546  0.00  0.00    -0.357 N 
ATOM     16  H   UNL     1      19.555  34.443  13.967  0.00  0.00    +0.142 HD
ATOM     17  H   UNL     1      19.088  35.224  15.424  0.00  0.00    +0.142 HD
ENDBRANCH   7  15
TORSDOF 1
ENDMDL
MODEL 5
REMARK minimizedAffinity -7.1392827
REMARK minimizedRMSD -1
REMARK  Name = 
REMARK  1 active torsions:
REMARK  status: ('A' for Active; 'I' for Inactive)
REMARK    1  A    between atoms: C_7  and  N_15
REMARK                            x       y       z     vdW  Elec       q    Type
REMARK                         _______ _______ _______ _____ _____    ______ ____
ROOT
ATOM      1  C   UNL     1      18.727  32.513  11.398  0.00  0.00    +0.001 A 
ATOM      2  C   UNL     1      19.697  32.957  12.283  0.00  0.00    +0.002 A 
ATOM      3  C   UNL     1      19.311  33.632  13.440  0.00  0.00    +0.028 A 
ATOM      4  C   UNL     1      17.979  33.880  13.742  0.00  0.00    +0.073 A 
ATOM      5  C   UNL     1      16.976  33.438  12.856  0.00  0.00    +0.022 A 
ATOM      6  C   UNL     1      17.381  32.750  11.682  0.00  0.00    +0.012 A 
ATOM      7  C   UNL     1      15.625  33.721  13.206  0.00  0.00    +0.043 A 
ATOM      8  C   UNL     1      15.346  34.411  14.421  0.00  0.00    +0.022 A 
ATOM      9  C   UNL     1      14.045  34.743  14.885  0.00  0.00    +0.012 A 
ATOM     10  C   UNL     1      13.847  35.429  16.084  0.00  0.00    +0.001 A 
ATOM     11  C   UNL     1      14.943  35.797  16.847  0.00  0.00    +0.002 A 
ATOM     12  C   UNL     1      16.226  35.475  16.403  0.00  0.00    +0.028 A 
ATOM     13  C   UNL     1      16.447  34.794  15.213  0.00  0.00    +0.073 A 
ATOM     14  N   UNL     1      17.717  34.536  14.878  0.00  0.00    -0.247 NA
ENDROOT
BRANCH   7  15
ATOM     15  N   UNL     1      14.574  33.269  12.394  0.00  0.00    -0.357 N 
ATOM     16  H   UNL     1      14.755  32.839  11.500  0.00  0.00    +0.142 HD
ATOM     17  H   UNL     1      13.618  33.518  12.592  0.00  0.00    +0.142 HD
ENDBRANCH   7  15
TORSDOF 1
ENDMDL
