REMARK  Name = =
REMARK  6 active torsions:
REMARK  status: ('A' for Active; 'I' for Inactive)
REMARK    1  A    between atoms: C_1  and  O_23
REMARK    2  A    between atoms: C_2  and  O_21
REMARK    3  A    between atoms: N_11  and  C_13
REMARK    4  A    between atoms: O_23  and  C_27
REMARK    5  A    between atoms: N_24  and  C_31
REMARK    6  A    between atoms: C_31  and  C_34
REMARK                            x       y       z     vdW  Elec       q    Type
REMARK                         _______ _______ _______ _____ _____    ______ ____
ROOT
ATOM      1  C   UNL     1      16.748  35.265  15.219  0.00  0.00    +0.163 C 
ATOM      2  C   UNL     1      15.582  35.392  15.963  0.00  0.00    +0.164 C 
ATOM      3  C   UNL     1      14.397  34.810  15.514  0.00  0.00    +0.078 C 
ATOM      4  C   UNL     1      14.328  34.156  14.292  0.00  0.00    +0.080 C 
ATOM      5  C   UNL     1      15.481  34.084  13.494  0.00  0.00    +0.044 C 
ATOM      6  C   UNL     1      16.688  34.665  13.962  0.00  0.00    +0.062 C 
ATOM      7  C   UNL     1      15.320  33.429  12.259  0.00  0.00    +0.134 C 
ATOM      8  N   UNL     1      14.142  32.902  11.881  0.00  0.00    -0.220 NA
ATOM      9  C   UNL     1      13.116  33.043  12.722  0.00  0.00    +0.223 C 
ATOM     10  N   UNL     1      13.159  33.632  13.922  0.00  0.00    -0.235 NA
ATOM     11  N   UNL     1      16.417  33.291  11.384  0.00  0.00    -0.297 N 
ATOM     12  H   UNL     1      17.253  32.947  11.831  0.00  0.00    +0.154 HD
ENDROOT
BRANCH  11  13
ATOM     13  C   UNL     1      16.392  33.172   9.979  0.00  0.00    +0.070 C 
ATOM     14  C   UNL     1      17.055  32.145   9.284  0.00  0.00    +0.163 C 
ATOM     15  C   UNL     1      17.031  32.089   7.889  0.00  0.00    +0.078 C 
ATOM     16  C   UNL     1      16.342  33.057   7.160  0.00  0.00    +0.023 C 
ATOM     17  C   UNL     1      15.671  34.078   7.831  0.00  0.00    +0.003 C 
ATOM     18  C   UNL     1      15.694  34.134   9.228  0.00  0.00    +0.026 C 
ATOM     19 CL   UNL     1      17.834  30.819   7.047  0.00  0.00    -0.081 Cl
ATOM     20  F   UNL     1      17.672  31.166   9.967  0.00  0.00    -0.202 F 
ENDBRANCH  11  13
BRANCH   2  21
ATOM     21  O   UNL     1      15.571  36.044  17.167  0.00  0.00    -0.491 OA
ATOM     22  C   UNL     1      14.262  36.562  17.424  0.00  0.00    +0.277 C 
ENDBRANCH   2  21
BRANCH   1  23
ATOM     23  O   UNL     1      17.930  35.815  15.622  0.00  0.00    -0.485 OA
BRANCH  23  27
ATOM     24  N   UNL     1      21.899  34.649  14.593  0.00  0.00    +0.242 N 
ATOM     25  C   UNL     1      21.416  36.005  14.125  0.00  0.00    +0.135 C 
ATOM     26  C   UNL     1      20.236  36.423  14.987  0.00  0.00    +0.095 C 
ATOM     27  C   UNL     1      19.115  35.381  14.931  0.00  0.00    +0.184 C 
ATOM     28  C   UNL     1      19.630  33.986  15.312  0.00  0.00    +0.095 C 
ATOM     29  C   UNL     1      20.828  33.595  14.460  0.00  0.00    +0.135 C 
ATOM     30  H   UNL     1      22.116  34.744  15.594  0.00  0.00    +0.204 HD
BRANCH  24  31
ATOM     31  C   UNL     1      23.226  34.227  13.940  0.00  0.00    +0.228 C 
BRANCH  31  34
ATOM     32  C   UNL     1      24.508  31.801  12.768  0.00  0.00    +0.128 C 
ATOM     33  N   UNL     1      23.775  32.775  11.991  0.00  0.00    -0.314 N 
ATOM     34  C   UNL     1      23.162  33.907  12.440  0.00  0.00    +0.258 C 
ATOM     35  O   UNL     1      22.570  34.635  11.645  0.00  0.00    -0.270 OA
ATOM     36  H   UNL     1      23.690  32.619  10.989  0.00  0.00    +0.149 HD
ENDBRANCH  31  34
ENDBRANCH  24  31
ENDBRANCH  23  27
ENDBRANCH   1  23
TORSDOF 6
