REMARK  Name = =
REMARK  0 active torsions:
REMARK  status: ('A' for Active; 'I' for Inactive)
REMARK                            x       y       z     vdW  Elec       q    Type
REMARK                         _______ _______ _______ _____ _____    ______ ____
ROOT
ATOM      1  C   UNL     1      16.732  36.195  17.402  0.00  0.00    +0.152 C 
ATOM      2  N   UNL     1      16.107  35.539  16.280  0.00  0.00    -0.315 N 
ATOM      3  C   UNL     1      16.750  34.967  15.207  0.00  0.00    +0.070 A 
ATOM      4  C   UNL     1      15.716  34.475  14.414  0.00  0.00    +0.100 A 
ATOM      5  C   UNL     1      16.032  33.809  13.203  0.00  0.00    +0.028 C 
ATOM      6  C   UNL     1      17.378  33.656  12.817  0.00  0.00    +0.073 C 
ATOM      7  C   UNL     1      18.370  34.166  13.644  0.00  0.00    +0.030 C 
ATOM      8  C   UNL     1      18.095  34.831  14.849  0.00  0.00    +0.030 C 
ATOM      9  N   UNL     1      17.716  33.030  11.674  0.00  0.00    -0.255 NA
ATOM     10  C   UNL     1      16.717  32.547  10.897  0.00  0.00    +0.111 C 
ATOM     11  C   UNL     1      15.370  32.654  11.200  0.00  0.00    +0.020 C 
ATOM     12  C   UNL     1      15.019  33.298  12.377  0.00  0.00    +0.013 C 
ATOM     13  N   UNL     1      14.493  34.741  14.988  0.00  0.00    -0.214 NA
ATOM     14  C   UNL     1      14.753  35.379  16.101  0.00  0.00    +0.194 A 
ATOM     15  N   UNL     1      13.844  35.831  16.970  0.00  0.00    -0.329 N 
ATOM     16  H   UNL     1      12.864  35.672  16.763  0.00  0.00    +0.145 HD
ATOM     17  H   UNL     1      14.042  36.327  17.828  0.00  0.00    +0.145 HD
ENDROOT
TORSDOF 0
