REMARK  Name = =
REMARK  7 active torsions:
REMARK  status: ('A' for Active; 'I' for Inactive)
REMARK    1  A    between atoms: C_1  and  N_19
REMARK    2  A    between atoms: C_10  and  N_11
REMARK    3  A    between atoms: N_11  and  C_22
REMARK    4  A    between atoms: C_17  and  N_19
REMARK    5  A    between atoms: C_25  and  O_29
REMARK    6  A    between atoms: O_29  and  C_30
REMARK    7  A    between atoms: C_30  and  C_31
REMARK                            x       y       z     vdW  Elec       q    Type
REMARK                         _______ _______ _______ _____ _____    ______ ____
ROOT
ATOM      1  C   UNL     1      17.871  32.110  11.242  0.00  0.00    +0.040 C 
ATOM      2  C   UNL     1      19.214  32.357  11.547  0.00  0.00    +0.037 C 
ATOM      3  C   UNL     1      19.598  33.144  12.668  0.00  0.00    +0.042 C 
ATOM      4  C   UNL     1      18.611  33.667  13.510  0.00  0.00    +0.076 C 
ATOM      5  C   UNL     1      17.283  33.408  13.209  0.00  0.00    +0.030 C 
ATOM      6  C   UNL     1      16.907  32.634  12.101  0.00  0.00    +0.025 C 
ATOM      7  N   UNL     1      18.884  34.380  14.599  0.00  0.00    -0.235 NA
ATOM      8  C   UNL     1      20.176  34.568  14.886  0.00  0.00    +0.223 C 
ATOM      9  N   UNL     1      21.206  34.120  14.166  0.00  0.00    -0.220 NA
ATOM     10  C   UNL     1      20.922  33.429  13.049  0.00  0.00    +0.134 C 
ENDROOT
BRANCH  10  11
ATOM     11  N   UNL     1      21.995  32.993  12.241  0.00  0.00    -0.299 N 
ATOM     12  H   UNL     1      21.917  33.307  11.284  0.00  0.00    +0.154 HD
BRANCH  11  13
ATOM     13  C   UNL     1      23.310  32.690  12.645  0.00  0.00    +0.034 C 
ATOM     14  C   UNL     1      24.188  31.959  11.831  0.00  0.00    +0.047 C 
ATOM     15  C   UNL     1      25.489  31.671  12.252  0.00  0.00    +0.084 C 
ATOM     16  C   UNL     1      25.918  32.080  13.517  0.00  0.00    +0.139 C 
ATOM     17  C   UNL     1      25.072  32.850  14.316  0.00  0.00    +0.049 C 
ATOM     18  C   UNL     1      23.779  33.151  13.883  0.00  0.00    +0.027 C 
ATOM     19 CL   UNL     1      26.540  30.861  11.146  0.00  0.00    -0.080 Cl
BRANCH  16  20
ATOM     20  O   UNL     1      27.173  31.836  14.009  0.00  0.00    -0.484 OA
BRANCH  20  21
ATOM     21  C   UNL     1      27.593  32.822  14.972  0.00  0.00    +0.291 C 
BRANCH  21  22
ATOM     22  C   UNL     1      27.805  32.176  16.311  0.00  0.00    +0.116 C 
ATOM     23  N   UNL     1      28.426  31.025  16.489  0.00  0.00    -0.249 NA
ATOM     24  C   UNL     1      28.472  30.722  17.834  0.00  0.00    +0.119 C 
ATOM     25  C   UNL     1      27.880  31.641  18.672  0.00  0.00    +0.066 C 
ATOM     26  S   UNL     1      27.242  32.937  17.750  0.00  0.00    -0.077 S 
ENDBRANCH  21  22
ENDBRANCH  20  21
ENDBRANCH  16  20
ENDBRANCH  11  13
ENDBRANCH  10  11
BRANCH   1  27
ATOM     27  N   UNL     1      17.591  31.300  10.187  0.00  0.00    -0.229 N 
ATOM     28  H   UNL     1      17.841  30.317  10.238  0.00  0.00    +0.161 HD
BRANCH  27  33
ATOM     29  C   UNL     1      14.958  33.523   7.032  0.00  0.00    +0.089 C 
ATOM     30  C   UNL     1      16.179  32.653   7.223  0.00  0.00    +0.299 C 
ATOM     31  C   UNL     1      15.888  31.163   7.229  0.00  0.00    +0.311 C 
ATOM     32  O   UNL     1      16.756  30.610   8.235  0.00  0.00    -0.425 OA
ATOM     33  C   UNL     1      17.029  31.634   9.052  0.00  0.00    +0.444 C 
ATOM     34  N   UNL     1      16.723  32.818   8.561  0.00  0.00    -0.190 NA
ATOM     35  H   UNL     1      16.983  33.678   9.020  0.00  0.00    +0.451 HD
ENDBRANCH  27  33
ENDBRANCH   1  27
TORSDOF 7
