REMARK  Name = =
REMARK  0 active torsions:
REMARK  status: ('A' for Active; 'I' for Inactive)
REMARK                            x       y       z     vdW  Elec       q    Type
REMARK                         _______ _______ _______ _____ _____    ______ ____
ROOT
ATOM      1  C   UNL     1      18.787  33.205  16.248  0.00  0.00    +0.046 C 
ATOM      2  C   UNL     1      17.893  33.371  15.054  0.00  0.00    -0.023 C 
ATOM      3  C   UNL     1      18.428  33.101  13.770  0.00  0.00    +0.033 C 
ATOM      4  C   UNL     1      17.713  33.217  12.586  0.00  0.00    +0.073 C 
ATOM      5  C   UNL     1      16.373  33.627  12.658  0.00  0.00    +0.028 C 
ATOM      6  C   UNL     1      15.633  33.755  11.470  0.00  0.00    +0.013 C 
ATOM      7  C   UNL     1      16.245  33.471  10.258  0.00  0.00    +0.020 C 
ATOM      8  C   UNL     1      17.570  33.071  10.281  0.00  0.00    +0.111 C 
ATOM      9  N   UNL     1      18.307  32.940  11.410  0.00  0.00    -0.255 NA
ATOM     10  C   UNL     1      15.784  33.908  13.916  0.00  0.00    +0.100 A 
ATOM     11  C   UNL     1      16.541  33.776  15.086  0.00  0.00    +0.073 A 
ATOM     12  N   UNL     1      15.646  34.122  16.082  0.00  0.00    -0.315 N 
ATOM     13  C   UNL     1      14.445  34.447  15.491  0.00  0.00    +0.194 A 
ATOM     14  N   UNL     1      14.501  34.320  14.193  0.00  0.00    -0.214 NA
ATOM     15  N   UNL     1      13.369  34.842  16.180  0.00  0.00    -0.329 N 
ATOM     16  C   UNL     1      15.869  34.163  17.506  0.00  0.00    +0.152 C 
ATOM     17  H   UNL     1      12.525  35.060  15.661  0.00  0.00    +0.145 HD
ATOM     18  H   UNL     1      13.315  34.952  17.182  0.00  0.00    +0.145 HD
ENDROOT
TORSDOF 0
