REMARK  Name = 
REMARK  0 active torsions:
REMARK  status: ('A' for Active; 'I' for Inactive)
REMARK                            x       y       z     vdW  Elec       q    Type
REMARK                         _______ _______ _______ _____ _____    ______ ____
ROOT
ATOM      1  C   UNL     1       0.371  -1.217   0.694  0.00  0.00    +0.148 C 
ATOM      2  C   UNL     1      -0.760  -1.399  -0.338  0.00  0.00    +0.157 C 
ATOM      3  N   UNL     1      -1.632  -0.213  -0.392  0.00  0.00    -0.305 N 
ATOM      4  C   UNL     1      -0.951   1.067  -0.630  0.00  0.00    +0.157 C 
ATOM      5  C   UNL     1       0.161   1.282   0.421  0.00  0.00    +0.148 C 
ATOM      6  N   UNL     1       1.098   0.093   0.447  0.00  0.00    +0.229 N 
ATOM      7  C   UNL     1      -2.659  -0.182   0.553  0.00  0.00    +0.122 A 
ATOM      8  N   UNL     1      -2.493  -0.879   1.697  0.00  0.00    -0.232 NA
ATOM      9  C   UNL     1      -3.476  -0.871   2.621  0.00  0.00    +0.073 A 
ATOM     10  C   UNL     1      -3.324  -1.601   3.794  0.00  0.00    +0.028 A 
ATOM     11  C   UNL     1      -4.315  -1.625   4.781  0.00  0.00    +0.002 A 
ATOM     12  C   UNL     1      -5.489  -0.903   4.601  0.00  0.00    +0.001 A 
ATOM     13  C   UNL     1      -5.668  -0.161   3.437  0.00  0.00    +0.010 A 
ATOM     14  C   UNL     1      -4.669  -0.142   2.448  0.00  0.00    +0.001 A 
ATOM     15  C   UNL     1      -4.819   0.586   1.267  0.00  0.00    +0.013 A 
ATOM     16  C   UNL     1      -3.806   0.565   0.314  0.00  0.00    +0.044 A 
ATOM     17  H   UNL     1       1.800   0.228   1.184  0.00  0.00    +0.201 HD
ATOM     18  H   UNL     1       1.603   0.034  -0.445  0.00  0.00    +0.201 HD
ENDROOT
TORSDOF 0
