REMARK  Name = =
REMARK  1 active torsions:
REMARK  status: ('A' for Active; 'I' for Inactive)
REMARK    1  A    between atoms: C_7  and  N_15
REMARK                            x       y       z     vdW  Elec       q    Type
REMARK                         _______ _______ _______ _____ _____    ______ ____
ROOT
ATOM      1  C   UNL     1      17.619  32.717  10.940  0.00  0.00    +0.001 C 
ATOM      2  C   UNL     1      16.265  32.526  10.721  0.00  0.00    +0.002 C 
ATOM      3  C   UNL     1      15.346  32.997  11.658  0.00  0.00    +0.028 C 
ATOM      4  C   UNL     1      15.741  33.653  12.816  0.00  0.00    +0.073 A 
ATOM      5  C   UNL     1      17.114  33.858  13.060  0.00  0.00    +0.022 A 
ATOM      6  C   UNL     1      18.040  33.376  12.097  0.00  0.00    +0.012 C 
ATOM      7  C   UNL     1      17.470  34.531  14.263  0.00  0.00    +0.043 A 
ATOM      8  C   UNL     1      16.444  34.976  15.146  0.00  0.00    +0.022 A 
ATOM      9  C   UNL     1      16.669  35.665  16.368  0.00  0.00    +0.012 C 
ATOM     10  C   UNL     1      15.614  36.066  17.188  0.00  0.00    +0.001 C 
ATOM     11  C   UNL     1      14.312  35.790  16.806  0.00  0.00    +0.002 C 
ATOM     12  C   UNL     1      14.077  35.115  15.608  0.00  0.00    +0.028 C 
ATOM     13  C   UNL     1      15.111  34.705  14.776  0.00  0.00    +0.073 A 
ATOM     14  N   UNL     1      14.779  34.064  13.650  0.00  0.00    -0.247 NA
ENDROOT
BRANCH   7  15
ATOM     15  N   UNL     1      18.815  34.809  14.546  0.00  0.00    -0.357 N 
ATOM     16  H   UNL     1      19.555  34.443  13.967  0.00  0.00    +0.142 HD
ATOM     17  H   UNL     1      19.088  35.224  15.424  0.00  0.00    +0.142 HD
ENDBRANCH   7  15
TORSDOF 1
