REMARK  Name = =
REMARK  0 active torsions:
REMARK  status: ('A' for Active; 'I' for Inactive)
REMARK                            x       y       z     vdW  Elec       q    Type
REMARK                         _______ _______ _______ _____ _____    ______ ____
ROOT
ATOM      1  C   UNL     1      18.347  31.787   6.747  0.00  0.00    +0.044 C 
ATOM      2  C   UNL     1      17.205  30.804   6.793  0.00  0.00    -0.045 C 
ATOM      3  C   UNL     1      16.036  31.163   7.495  0.00  0.00    +0.031 C 
ATOM      4  C   UNL     1      14.992  30.236   7.521  0.00  0.00    +0.066 C 
ATOM      5  C   UNL     1      15.056  28.999   6.895  0.00  0.00    +0.089 C 
ATOM      6  C   UNL     1      16.219  28.647   6.197  0.00  0.00    +0.033 C 
ATOM      7  C   UNL     1      17.297  29.554   6.142  0.00  0.00    -0.045 C 
ATOM      8  C   UNL     1      18.539  29.153   5.389  0.00  0.00    +0.044 C 
ATOM      9  N   UNL     1      13.892  28.292   7.083  0.00  0.00    -0.236 NA
ATOM     10  C   UNL     1      13.128  29.077   7.808  0.00  0.00    +0.197 C 
ATOM     11  N   UNL     1      13.748  30.260   8.096  0.00  0.00    -0.344 N 
ATOM     12  H   UNL     1      13.358  31.017   8.637  0.00  0.00    +0.167 HD
ENDROOT
TORSDOF 0
