REMARK  Name = =
REMARK  1 active torsions:
REMARK  status: ('A' for Active; 'I' for Inactive)
REMARK    1  A    between atoms: C_7  and  C_14
REMARK                            x       y       z     vdW  Elec       q    Type
REMARK                         _______ _______ _______ _____ _____    ______ ____
ROOT
ATOM      1  C   UNL     1      13.471  34.390  14.958  0.00  0.00    +0.152 C 
ATOM      2  N   UNL     1      14.905  34.246  14.991  0.00  0.00    -0.314 N 
ATOM      3  C   UNL     1      15.721  33.981  13.920  0.00  0.00    +0.089 A 
ATOM      4  C   UNL     1      16.994  33.930  14.479  0.00  0.00    +0.180 A 
ATOM      5  N   UNL     1      18.112  33.684  13.762  0.00  0.00    -0.234 NA
ATOM      6  C   UNL     1      17.893  33.486  12.440  0.00  0.00    +0.121 C 
ATOM      7  C   UNL     1      16.658  33.516  11.782  0.00  0.00    +0.002 C 
ATOM      8  C   UNL     1      15.517  33.778  12.552  0.00  0.00    +0.039 C 
ATOM      9  N   UNL     1      16.960  34.155  15.825  0.00  0.00    -0.195 NA
ATOM     10  C   UNL     1      15.697  34.342  16.112  0.00  0.00    +0.195 A 
ATOM     11  N   UNL     1      15.205  34.594  17.330  0.00  0.00    -0.329 N 
ATOM     12  H   UNL     1      14.232  34.736  17.560  0.00  0.00    +0.145 HD
ATOM     13  H   UNL     1      15.859  34.649  18.105  0.00  0.00    +0.145 HD
ENDROOT
BRANCH   7  14
ATOM     14  C   UNL     1      16.559  33.278  10.336  0.00  0.00    -0.016 C 
ATOM     15  C   UNL     1      15.818  34.141   9.511  0.00  0.00    +0.008 C 
ATOM     16  C   UNL     1      15.723  33.915   8.135  0.00  0.00    +0.001 C 
ATOM     17  C   UNL     1      16.365  32.821   7.563  0.00  0.00    +0.000 C 
ATOM     18  C   UNL     1      17.103  31.951   8.364  0.00  0.00    +0.001 C 
ATOM     19  C   UNL     1      17.199  32.179   9.739  0.00  0.00    +0.008 C 
ENDBRANCH   7  14
TORSDOF 1
