REMARK  Name = =
REMARK  1 active torsions:
REMARK  status: ('A' for Active; 'I' for Inactive)
REMARK    1  A    between atoms: N_3  and  C_7
REMARK                            x       y       z     vdW  Elec       q    Type
REMARK                         _______ _______ _______ _____ _____    ______ ____
ROOT
ATOM      1  C   UNL     1      16.868  31.839   8.614  0.00  0.00    +0.122 C 
ATOM      2  N   UNL     1      15.745  31.093   8.673  0.00  0.00    -0.232 NA
ATOM      3  C   UNL     1      15.380  30.366   7.597  0.00  0.00    +0.073 C 
ATOM      4  C   UNL     1      14.235  29.579   7.653  0.00  0.00    +0.028 C 
ATOM      5  C   UNL     1      13.817  28.808   6.564  0.00  0.00    +0.002 C 
ATOM      6  C   UNL     1      14.553  28.818   5.385  0.00  0.00    +0.001 C 
ATOM      7  C   UNL     1      15.702  29.598   5.299  0.00  0.00    +0.010 C 
ATOM      8  C   UNL     1      16.119  30.371   6.397  0.00  0.00    +0.001 C 
ATOM      9  C   UNL     1      17.269  31.159   6.347  0.00  0.00    +0.013 C 
ATOM     10  C   UNL     1      17.645  31.897   7.464  0.00  0.00    +0.044 C 
ENDROOT
BRANCH   1  13
ATOM     11  C   UNL     1      15.295  32.563  11.311  0.00  0.00    +0.148 C 
ATOM     12  C   UNL     1      16.723  32.055  11.025  0.00  0.00    +0.157 C 
ATOM     13  N   UNL     1      17.230  32.575   9.744  0.00  0.00    -0.305 N 
ATOM     14  C   UNL     1      17.188  34.035   9.589  0.00  0.00    +0.157 C 
ATOM     15  C   UNL     1      15.755  34.556   9.834  0.00  0.00    +0.148 C 
ATOM     16  N   UNL     1      15.242  34.074  11.175  0.00  0.00    +0.229 N 
ATOM     17  H   UNL     1      14.272  34.386  11.301  0.00  0.00    +0.201 HD
ATOM     18  H   UNL     1      15.796  34.499  11.928  0.00  0.00    +0.201 HD
ENDBRANCH   1  13
TORSDOF 1
