REMARK  Name = =
REMARK  1 active torsions:
REMARK  status: ('A' for Active; 'I' for Inactive)
REMARK    1  A    between atoms: C_7  and  C_14
REMARK                            x       y       z     vdW  Elec       q    Type
REMARK                         _______ _______ _______ _____ _____    ______ ____
ROOT
ATOM      1  C   UNL     1      21.507  32.717  15.135  0.00  0.00    +0.152 C 
ATOM      2  N   UNL     1      20.693  32.768  13.946  0.00  0.00    -0.314 N 
ATOM      3  C   UNL     1      19.403  33.231  13.862  0.00  0.00    +0.089 A 
ATOM      4  C   UNL     1      19.075  33.055  12.521  0.00  0.00    +0.180 A 
ATOM      5  N   UNL     1      17.873  33.383  12.000  0.00  0.00    -0.234 NA
ATOM      6  C   UNL     1      17.001  33.900  12.897  0.00  0.00    +0.121 C 
ATOM      7  C   UNL     1      17.230  34.117  14.261  0.00  0.00    +0.002 C 
ATOM      8  C   UNL     1      18.489  33.770  14.771  0.00  0.00    +0.039 C 
ATOM      9  N   UNL     1      20.114  32.515  11.817  0.00  0.00    -0.195 NA
ATOM     10  C   UNL     1      21.073  32.350  12.692  0.00  0.00    +0.195 A 
ATOM     11  N   UNL     1      22.283  31.840  12.432  0.00  0.00    -0.329 N 
ATOM     12  H   UNL     1      23.027  31.707  13.101  0.00  0.00    +0.145 HD
ATOM     13  H   UNL     1      22.484  31.556  11.478  0.00  0.00    +0.145 HD
ENDROOT
BRANCH   7  14
ATOM     14  C   UNL     1      16.189  34.682  15.129  0.00  0.00    -0.016 C 
ATOM     15  C   UNL     1      16.527  35.383  16.298  0.00  0.00    +0.008 C 
ATOM     16  C   UNL     1      15.537  35.922  17.126  0.00  0.00    +0.001 C 
ATOM     17  C   UNL     1      14.194  35.764  16.797  0.00  0.00    +0.000 C 
ATOM     18  C   UNL     1      13.837  35.070  15.643  0.00  0.00    +0.001 C 
ATOM     19  C   UNL     1      14.828  34.535  14.816  0.00  0.00    +0.008 C 
ENDBRANCH   7  14
TORSDOF 1
