MODEL 1
REMARK minimizedAffinity -6.21217299
REMARK minimizedRMSD -1
REMARK  Name = 
REMARK  2 active torsions:
REMARK  status: ('A' for Active; 'I' for Inactive)
REMARK    1  A    between atoms: C_1  and  C_2
REMARK    2  A    between atoms: C_9  and  N_12
REMARK                            x       y       z     vdW  Elec       q    Type
REMARK                         _______ _______ _______ _____ _____    ______ ____
ROOT
ATOM      1  C   UNL     1      16.828  33.512   9.653  0.00  0.00    +0.065 C 
ATOM      2  C   UNL     1      16.507  32.429   8.665  0.00  0.00    +0.039 A 
ATOM      3  N   UNL     1      15.312  31.805   8.799  0.00  0.00    -0.252 NA
ATOM      4  C   UNL     1      14.992  30.832   7.926  0.00  0.00    +0.071 A 
ATOM      5  C   UNL     1      15.853  30.439   6.883  0.00  0.00    +0.002 A 
ATOM      6  C   UNL     1      17.080  31.102   6.764  0.00  0.00    +0.012 A 
ATOM      7  C   UNL     1      17.413  32.108   7.664  0.00  0.00    +0.023 A 
ATOM      8  C   UNL     1      15.472  29.414   5.996  0.00  0.00    +0.032 A 
ATOM      9  C   UNL     1      14.252  28.753   6.141  0.00  0.00    +0.025 A 
ATOM     10  C   UNL     1      13.391  29.170   7.154  0.00  0.00    +0.025 A 
ATOM     11  C   UNL     1      13.770  30.188   8.038  0.00  0.00    +0.030 A 
ENDROOT
BRANCH   9  12
ATOM     12  N   UNL     1      13.854  27.794   5.227  0.00  0.00    -0.358 N 
ATOM     13  H   UNL     1      14.529  27.407   4.583  0.00  0.00    +0.142 HD
ATOM     14  H   UNL     1      13.029  27.240   5.418  0.00  0.00    +0.142 HD
ENDBRANCH   9  12
TORSDOF 1
ENDMDL
MODEL 2
REMARK minimizedAffinity -6.16030359
REMARK minimizedRMSD -1
REMARK  Name = 
REMARK  2 active torsions:
REMARK  status: ('A' for Active; 'I' for Inactive)
REMARK    1  A    between atoms: C_1  and  C_2
REMARK    2  A    between atoms: C_9  and  N_12
REMARK                            x       y       z     vdW  Elec       q    Type
REMARK                         _______ _______ _______ _____ _____    ______ ____
ROOT
ATOM      1  C   UNL     1      16.569  28.260   6.258  0.00  0.00    +0.065 C 
ATOM      2  C   UNL     1      16.275  29.669   6.681  0.00  0.00    +0.039 A 
ATOM      3  N   UNL     1      16.808  30.085   7.855  0.00  0.00    -0.252 NA
ATOM      4  C   UNL     1      16.566  31.345   8.261  0.00  0.00    +0.071 A 
ATOM      5  C   UNL     1      15.781  32.243   7.513  0.00  0.00    +0.002 A 
ATOM      6  C   UNL     1      15.246  31.790   6.301  0.00  0.00    +0.012 A 
ATOM      7  C   UNL     1      15.494  30.489   5.879  0.00  0.00    +0.023 A 
ATOM      8  C   UNL     1      15.558  33.552   7.982  0.00  0.00    +0.032 A 
ATOM      9  C   UNL     1      16.085  33.980   9.200  0.00  0.00    +0.025 A 
ATOM     10  C   UNL     1      16.888  33.097   9.919  0.00  0.00    +0.025 A 
ATOM     11  C   UNL     1      17.110  31.796   9.454  0.00  0.00    +0.030 A 
ENDROOT
BRANCH   9  12
ATOM     12  N   UNL     1      15.919  35.287   9.623  0.00  0.00    -0.358 N 
ATOM     13  H   UNL     1      15.233  35.875   9.170  0.00  0.00    +0.142 HD
ATOM     14  H   UNL     1      16.198  35.544  10.561  0.00  0.00    +0.142 HD
ENDBRANCH   9  12
TORSDOF 1
ENDMDL
MODEL 3
REMARK minimizedAffinity -6.10287619
REMARK minimizedRMSD -1
REMARK  Name = 
REMARK  2 active torsions:
REMARK  status: ('A' for Active; 'I' for Inactive)
REMARK    1  A    between atoms: C_1  and  C_2
REMARK    2  A    between atoms: C_9  and  N_12
REMARK                            x       y       z     vdW  Elec       q    Type
REMARK                         _______ _______ _______ _____ _____    ______ ____
ROOT
ATOM      1  C   UNL     1      17.293  35.897  16.038  0.00  0.00    +0.065 C 
ATOM      2  C   UNL     1      17.059  35.065  14.812  0.00  0.00    +0.039 A 
ATOM      3  N   UNL     1      18.139  34.463  14.257  0.00  0.00    -0.252 NA
ATOM      4  C   UNL     1      17.961  33.706  13.159  0.00  0.00    +0.071 A 
ATOM      5  C   UNL     1      16.698  33.518  12.566  0.00  0.00    +0.002 A 
ATOM      6  C   UNL     1      15.597  34.147  13.161  0.00  0.00    +0.012 A 
ATOM      7  C   UNL     1      15.777  34.930  14.297  0.00  0.00    +0.023 A 
ATOM      8  C   UNL     1      16.565  32.716  11.417  0.00  0.00    +0.032 A 
ATOM      9  C   UNL     1      17.676  32.112  10.829  0.00  0.00    +0.025 A 
ATOM     10  C   UNL     1      18.917  32.275  11.439  0.00  0.00    +0.025 A 
ATOM     11  C   UNL     1      19.050  33.073  12.582  0.00  0.00    +0.030 A 
ENDROOT
BRANCH   9  12
ATOM     12  N   UNL     1      17.530  31.271   9.739  0.00  0.00    -0.358 N 
ATOM     13  H   UNL     1      16.659  31.264   9.227  0.00  0.00    +0.142 HD
ATOM     14  H   UNL     1      18.354  30.944   9.252  0.00  0.00    +0.142 HD
ENDBRANCH   9  12
TORSDOF 1
ENDMDL
MODEL 4
REMARK minimizedAffinity -5.99470997
REMARK minimizedRMSD -1
REMARK  Name = 
REMARK  2 active torsions:
REMARK  status: ('A' for Active; 'I' for Inactive)
REMARK    1  A    between atoms: C_1  and  C_2
REMARK    2  A    between atoms: C_9  and  N_12
REMARK                            x       y       z     vdW  Elec       q    Type
REMARK                         _______ _______ _______ _____ _____    ______ ____
ROOT
ATOM      1  C   UNL     1      14.760  35.928  17.207  0.00  0.00    +0.065 C 
ATOM      2  C   UNL     1      14.712  35.195  15.900  0.00  0.00    +0.039 A 
ATOM      3  N   UNL     1      15.892  34.967  15.274  0.00  0.00    -0.252 NA
ATOM      4  C   UNL     1      15.882  34.308  14.101  0.00  0.00    +0.071 A 
ATOM      5  C   UNL     1      14.694  33.850  13.500  0.00  0.00    +0.002 A 
ATOM      6  C   UNL     1      13.488  34.094  14.169  0.00  0.00    +0.012 A 
ATOM      7  C   UNL     1      13.494  34.774  15.382  0.00  0.00    +0.023 A 
ATOM      8  C   UNL     1      14.737  33.165  12.271  0.00  0.00    +0.032 A 
ATOM      9  C   UNL     1      15.947  32.946  11.612  0.00  0.00    +0.025 A 
ATOM     10  C   UNL     1      17.121  33.373  12.227  0.00  0.00    +0.025 A 
ATOM     11  C   UNL     1      17.079  34.055  13.449  0.00  0.00    +0.030 A 
ENDROOT
BRANCH   9  12
ATOM     12  N   UNL     1      15.991  32.215  10.438  0.00  0.00    -0.358 N 
ATOM     13  H   UNL     1      15.135  32.027   9.934  0.00  0.00    +0.142 HD
ATOM     14  H   UNL     1      16.854  32.174   9.911  0.00  0.00    +0.142 HD
ENDBRANCH   9  12
TORSDOF 1
ENDMDL
MODEL 5
REMARK minimizedAffinity -5.90265894
REMARK minimizedRMSD -1
REMARK  Name = 
REMARK  2 active torsions:
REMARK  status: ('A' for Active; 'I' for Inactive)
REMARK    1  A    between atoms: C_1  and  C_2
REMARK    2  A    between atoms: C_9  and  N_12
REMARK                            x       y       z     vdW  Elec       q    Type
REMARK                         _______ _______ _______ _____ _____    ______ ____
ROOT
ATOM      1  C   UNL     1      18.379  32.956  11.206  0.00  0.00    +0.065 C 
ATOM      2  C   UNL     1      17.285  33.377  12.142  0.00  0.00    +0.039 A 
ATOM      3  N   UNL     1      17.653  34.031  13.269  0.00  0.00    -0.252 NA
ATOM      4  C   UNL     1      16.695  34.426  14.127  0.00  0.00    +0.071 A 
ATOM      5  C   UNL     1      15.328  34.181  13.899  0.00  0.00    +0.002 A 
ATOM      6  C   UNL     1      14.973  33.506  12.724  0.00  0.00    +0.012 A 
ATOM      7  C   UNL     1      15.960  33.098  11.835  0.00  0.00    +0.023 A 
ATOM      8  C   UNL     1      14.363  34.614  14.829  0.00  0.00    +0.032 A 
ATOM      9  C   UNL     1      14.738  35.270  16.001  0.00  0.00    +0.025 A 
ATOM     10  C   UNL     1      16.090  35.538  16.206  0.00  0.00    +0.025 A 
ATOM     11  C   UNL     1      17.049  35.106  15.282  0.00  0.00    +0.030 A 
ENDROOT
BRANCH   9  12
ATOM     12  N   UNL     1      13.783  35.752  16.879  0.00  0.00    -0.358 N 
ATOM     13  H   UNL     1      12.825  35.442  16.794  0.00  0.00    +0.142 HD
ATOM     14  H   UNL     1      14.073  36.111  17.779  0.00  0.00    +0.142 HD
ENDBRANCH   9  12
TORSDOF 1
ENDMDL
