REMARK  Name = =
REMARK  5 active torsions:
REMARK  status: ('A' for Active; 'I' for Inactive)
REMARK    1  A    between atoms: N_1  and  C_15
REMARK    2  A    between atoms: N_4  and  C_19
REMARK    3  A    between atoms: C_19  and  C_20
REMARK    4  A    between atoms: C_20  and  C_21
REMARK    5  A    between atoms: C_23  and  N_27
REMARK                            x       y       z     vdW  Elec       q    Type
REMARK                         _______ _______ _______ _____ _____    ______ ____
ROOT
ATOM      1  N   UNL     1      17.041  32.915  11.086  0.00  0.00    -0.319 N 
ATOM      2  C   UNL     1      18.509  32.891  11.055  0.00  0.00    +0.156 C 
ATOM      3  C   UNL     1      19.057  32.103  12.264  0.00  0.00    +0.150 C 
ATOM      4  N   UNL     1      18.477  32.619  13.588  0.00  0.00    +0.238 N 
ATOM      5  C   UNL     1      16.948  32.578  13.533  0.00  0.00    +0.150 C 
ATOM      6  C   UNL     1      16.392  33.361  12.326  0.00  0.00    +0.156 C 
ATOM      7  H   UNL     1      18.761  31.923  14.293  0.00  0.00    +0.203 HD
ENDROOT
BRANCH   1  15
ATOM      8  C   UNL     1      16.056  30.148   5.215  0.00  0.00    +0.065 C 
ATOM      9  C   UNL     1      16.179  30.953   6.474  0.00  0.00    +0.039 C 
ATOM     10  N   UNL     1      15.651  32.200   6.466  0.00  0.00    -0.252 NA
ATOM     11  C   UNL     1      15.742  32.953   7.575  0.00  0.00    +0.073 C 
ATOM     12  C   UNL     1      16.367  32.505   8.760  0.00  0.00    +0.021 C 
ATOM     13  C   UNL     1      16.905  31.205   8.732  0.00  0.00    +0.013 C 
ATOM     14  C   UNL     1      16.813  30.422   7.585  0.00  0.00    +0.024 C 
ATOM     15  C   UNL     1      16.426  33.354   9.901  0.00  0.00    +0.039 C 
ATOM     16  C   UNL     1      15.859  34.635   9.828  0.00  0.00    +0.024 C 
ATOM     17  C   UNL     1      15.245  35.070   8.659  0.00  0.00    +0.004 C 
ATOM     18  C   UNL     1      15.194  34.226   7.550  0.00  0.00    +0.028 C 
ENDBRANCH   1  15
BRANCH   4  19
ATOM     19  C   UNL     1      19.078  33.942  14.022  0.00  0.00    +0.136 C 
BRANCH  19  20
ATOM     20  C   UNL     1      19.820  33.847  15.365  0.00  0.00    +0.086 C 
BRANCH  20  21
ATOM     21  C   UNL     1      21.309  33.653  15.205  0.00  0.00    -0.041 C 
ATOM     22  C   UNL     1      21.848  33.232  13.975  0.00  0.00    +0.027 C 
ATOM     23  C   UNL     1      23.222  32.979  13.823  0.00  0.00    +0.038 C 
ATOM     24  C   UNL     1      24.045  33.160  14.939  0.00  0.00    +0.023 C 
ATOM     25  C   UNL     1      23.527  33.605  16.159  0.00  0.00    +0.002 C 
ATOM     26  C   UNL     1      22.167  33.860  16.290  0.00  0.00    +0.004 C 
BRANCH  23  27
ATOM     27  N   UNL     1      23.752  32.576  12.572  0.00  0.00    -0.254 N 
ATOM     28  C   UNL     1      23.930  33.470  11.445  0.00  0.00    +0.134 C 
ATOM     29  C   UNL     1      24.763  32.676  10.449  0.00  0.00    +0.125 C 
ATOM     30  N   UNL     1      24.682  31.333  10.932  0.00  0.00    -0.297 N 
ATOM     31  C   UNL     1      24.155  31.275  12.213  0.00  0.00    +0.307 C 
ATOM     32  O   UNL     1      24.071  30.235  12.844  0.00  0.00    -0.252 OA
ATOM     33  H   UNL     1      25.067  30.504  10.496  0.00  0.00    +0.150 HD
ENDBRANCH  23  27
ENDBRANCH  20  21
ENDBRANCH  19  20
ENDBRANCH   4  19
TORSDOF 5
