REMARK  Name = =
REMARK  0 active torsions:
REMARK  status: ('A' for Active; 'I' for Inactive)
REMARK                            x       y       z     vdW  Elec       q    Type
REMARK                         _______ _______ _______ _____ _____    ______ ____
ROOT
ATOM      1  C   UNL     1      15.031  28.166   5.595  0.00  0.00    +0.001 C 
ATOM      2  C   UNL     1      13.853  28.477   6.259  0.00  0.00    +0.002 C 
ATOM      3  C   UNL     1      13.825  29.543   7.163  0.00  0.00    +0.028 C 
ATOM      4  C   UNL     1      14.951  30.313   7.428  0.00  0.00    +0.076 C 
ATOM      5  C   UNL     1      16.146  29.998   6.766  0.00  0.00    +0.040 C 
ATOM      6  C   UNL     1      16.176  28.922   5.843  0.00  0.00    +0.013 C 
ATOM      7  C   UNL     1      17.239  30.814   7.088  0.00  0.00    +0.127 C 
ATOM      8  N   UNL     1      17.158  31.845   7.939  0.00  0.00    -0.221 NA
ATOM      9  C   UNL     1      15.962  32.045   8.506  0.00  0.00    +0.223 C 
ATOM     10  N   UNL     1      14.854  31.323   8.298  0.00  0.00    -0.235 NA
ATOM     11  N   UNL     1      18.488  30.640   6.508  0.00  0.00    -0.343 N 
ATOM     12  H   UNL     1      18.834  29.695   6.440  0.00  0.00    +0.144 HD
ATOM     13  H   UNL     1      19.150  31.335   6.837  0.00  0.00    +0.144 HD
ENDROOT
TORSDOF 0
