REMARK  Name = =
REMARK  0 active torsions:
REMARK  status: ('A' for Active; 'I' for Inactive)
REMARK                            x       y       z     vdW  Elec       q    Type
REMARK                         _______ _______ _______ _____ _____    ______ ____
ROOT
ATOM      1  C   UNL     1      18.556  29.172   5.381  0.00  0.00    +0.044 C 
ATOM      2  C   UNL     1      17.293  29.529   6.121  0.00  0.00    -0.045 C 
ATOM      3  C   UNL     1      16.240  28.591   6.147  0.00  0.00    +0.031 C 
ATOM      4  C   UNL     1      15.081  28.944   6.841  0.00  0.00    +0.066 C 
ATOM      5  C   UNL     1      14.926  30.158   7.497  0.00  0.00    +0.089 C 
ATOM      6  C   UNL     1      15.976  31.086   7.471  0.00  0.00    +0.033 C 
ATOM      7  C   UNL     1      17.166  30.770   6.784  0.00  0.00    -0.045 C 
ATOM      8  C   UNL     1      18.279  31.783   6.767  0.00  0.00    +0.044 C 
ATOM      9  N   UNL     1      13.691  30.239   8.094  0.00  0.00    -0.236 NA
ATOM     10  C   UNL     1      13.099  29.102   7.813  0.00  0.00    +0.197 C 
ATOM     11  N   UNL     1      13.897  28.288   7.060  0.00  0.00    -0.344 N 
ATOM     12  H   UNL     1      13.658  27.367   6.725  0.00  0.00    +0.167 HD
ENDROOT
TORSDOF 0
