REMARK  Name = =
REMARK  9 active torsions:
REMARK  status: ('A' for Active; 'I' for Inactive)
REMARK    1  A    between atoms: N_1  and  C_2
REMARK    2  A    between atoms: N_1  and  C_25
REMARK    3  A    between atoms: C_7  and  C_14
REMARK    4  A    between atoms: C_12  and  C_35
REMARK    5  A    between atoms: N_16  and  C_18
REMARK    6  A    between atoms: C_18  and  C_19
REMARK    7  A    between atoms: C_25  and  C_29
REMARK    8  A    between atoms: C_26  and  O_34
REMARK    9  A    between atoms: C_35  and  O_36
REMARK                            x       y       z     vdW  Elec       q    Type
REMARK                         _______ _______ _______ _____ _____    ______ ____
ROOT
ATOM      1  C   UNL     1      17.915  33.721  14.131  0.00  0.00    +0.136 C 
ATOM      2  N   UNL     1      19.227  33.422  14.045  0.00  0.00    -0.199 NA
ATOM      3  C   UNL     1      20.142  34.337  14.412  0.00  0.00    +0.220 C 
ATOM      4  N   UNL     1      19.808  35.548  14.879  0.00  0.00    -0.222 NA
ATOM      5  C   UNL     1      18.494  35.820  14.989  0.00  0.00    +0.131 C 
ATOM      6  C   UNL     1      17.503  34.928  14.654  0.00  0.00    +0.094 C 
ATOM      7  N   UNL     1      21.461  34.024  14.293  0.00  0.00    -0.294 N 
ATOM      8  C   UNL     1      22.509  34.908  14.762  0.00  0.00    +0.108 C 
ATOM      9  C   UNL     1      23.791  34.185  14.350  0.00  0.00    +0.021 C 
ATOM     10  C   UNL     1      23.393  32.715  14.409  0.00  0.00    +0.026 C 
ATOM     11  C   UNL     1      21.943  32.708  13.888  0.00  0.00    +0.102 C 
ENDROOT
BRANCH   6  12
ATOM     12  C   UNL     1      16.119  35.331  14.895  0.00  0.00    +0.249 C 
ATOM     13  O   UNL     1      15.501  35.904  14.005  0.00  0.00    -0.270 OA
ATOM     14  N   UNL     1      15.547  35.091  16.114  0.00  0.00    -0.304 N 
ATOM     15  H   UNL     1      14.575  35.368  16.198  0.00  0.00    +0.149 HD
BRANCH  14  16
ATOM     16  C   UNL     1      16.161  34.467  17.284  0.00  0.00    +0.180 C 
BRANCH  16  17
ATOM     17  C   UNL     1      17.164  35.377  17.959  0.00  0.00    +0.146 C 
ATOM     18  N   UNL     1      18.206  34.810  18.599  0.00  0.00    -0.239 NA
ATOM     19  C   UNL     1      19.096  35.651  19.158  0.00  0.00    +0.114 C 
ATOM     20  C   UNL     1      18.988  37.020  19.101  0.00  0.00    +0.039 C 
ATOM     21  C   UNL     1      17.894  37.501  18.422  0.00  0.00    +0.114 C 
ATOM     22  N   UNL     1      16.973  36.710  17.839  0.00  0.00    -0.239 NA
ENDBRANCH  16  17
ENDBRANCH  14  16
ENDBRANCH   6  12
BRANCH   1  23
ATOM     23  N   UNL     1      17.106  32.706  13.666  0.00  0.00    -0.324 N 
ATOM     24  H   UNL     1      17.670  31.910  13.381  0.00  0.00    +0.148 HD
BRANCH  23  25
ATOM     25  C   UNL     1      15.930  32.963  12.859  0.00  0.00    +0.138 C 
BRANCH  25  29
ATOM     26  C   UNL     1      17.041  32.563   8.708  0.00  0.00    +0.138 C 
ATOM     27  C   UNL     1      16.013  33.439   9.071  0.00  0.00    +0.083 C 
ATOM     28  C   UNL     1      15.653  33.570  10.415  0.00  0.00    +0.028 C 
ATOM     29  C   UNL     1      16.300  32.809  11.401  0.00  0.00    -0.029 C 
ATOM     30  C   UNL     1      17.322  31.924  11.022  0.00  0.00    +0.009 C 
ATOM     31  C   UNL     1      17.683  31.793   9.680  0.00  0.00    +0.047 C 
ATOM     32 CL   UNL     1      15.173  34.380   7.894  0.00  0.00    -0.080 Cl
BRANCH  26  34
ATOM     33  C   UNL     1      16.892  31.135   6.918  0.00  0.00    +0.277 C 
ATOM     34  O   UNL     1      17.390  32.386   7.394  0.00  0.00    -0.494 OA
ENDBRANCH  26  34
ENDBRANCH  25  29
ENDBRANCH  23  25
ENDBRANCH   1  23
BRANCH  11  35
ATOM     35  C   UNL     1      21.857  32.527  12.361  0.00  0.00    +0.178 C 
BRANCH  35  36
ATOM     36  O   UNL     1      20.680  31.816  11.976  0.00  0.00    -0.393 OA
ATOM     37  H   UNL     1      20.882  30.868  12.034  0.00  0.00    +0.209 HD
ENDBRANCH  35  36
ENDBRANCH  11  35
TORSDOF 9
