REMARK  Name = =
REMARK  1 active torsions:
REMARK  status: ('A' for Active; 'I' for Inactive)
REMARK    1  A    between atoms: C_7  and  C_14
REMARK                            x       y       z     vdW  Elec       q    Type
REMARK                         _______ _______ _______ _____ _____    ______ ____
ROOT
ATOM      1  C   UNL     1      16.347  33.940  15.476  0.00  0.00    +0.152 C 
ATOM      2  N   UNL     1      17.464  33.332  14.797  0.00  0.00    -0.314 N 
ATOM      3  C   UNL     1      17.613  33.188  13.440  0.00  0.00    +0.089 A 
ATOM      4  C   UNL     1      18.836  32.539  13.308  0.00  0.00    +0.180 A 
ATOM      5  N   UNL     1      19.370  32.195  12.116  0.00  0.00    -0.234 NA
ATOM      6  C   UNL     1      18.611  32.533  11.048  0.00  0.00    +0.121 C 
ATOM      7  C   UNL     1      17.372  33.184  11.072  0.00  0.00    +0.002 C 
ATOM      8  C   UNL     1      16.845  33.532  12.324  0.00  0.00    +0.039 C 
ATOM      9  N   UNL     1      19.411  32.300  14.523  0.00  0.00    -0.195 NA
ATOM     10  C   UNL     1      18.571  32.783  15.403  0.00  0.00    +0.195 A 
ATOM     11  N   UNL     1      18.737  32.760  16.730  0.00  0.00    -0.329 N 
ATOM     12  H   UNL     1      18.092  33.128  17.415  0.00  0.00    +0.145 HD
ATOM     13  H   UNL     1      19.583  32.336  17.096  0.00  0.00    +0.145 HD
ENDROOT
BRANCH   7  14
ATOM     14  C   UNL     1      16.645  33.489   9.832  0.00  0.00    -0.016 C 
ATOM     15  C   UNL     1      16.740  32.642   8.715  0.00  0.00    +0.008 C 
ATOM     16  C   UNL     1      16.048  32.931   7.534  0.00  0.00    +0.001 C 
ATOM     17  C   UNL     1      15.255  34.071   7.453  0.00  0.00    +0.000 C 
ATOM     18  C   UNL     1      15.150  34.925   8.549  0.00  0.00    +0.001 C 
ATOM     19  C   UNL     1      15.839  34.634   9.729  0.00  0.00    +0.008 C 
ENDBRANCH   7  14
TORSDOF 1
