REMARK  Name = =
REMARK  8 active torsions:
REMARK  status: ('A' for Active; 'I' for Inactive)
REMARK    1  A    between atoms: N_1  and  C_5
REMARK    2  A    between atoms: N_1  and  C_13
REMARK    3  A    between atoms: N_1  and  C_21
REMARK    4  A    between atoms: C_13  and  C_14
REMARK    5  A    between atoms: C_14  and  C_15
REMARK    6  A    between atoms: C_15  and  C_16
REMARK    7  A    between atoms: C_16  and  N_17
REMARK    8  A    between atoms: C_21  and  C_22
REMARK                            x       y       z     vdW  Elec       q    Type
REMARK                         _______ _______ _______ _____ _____    ______ ____
ROOT
ATOM      1  N   UNL     1      19.303  33.047  12.905  0.00  0.00    +0.247 N 
ATOM      2  H   UNL     1      18.749  33.768  12.409  0.00  0.00    +0.204 HD
ENDROOT
BRANCH   1   5
ATOM      3  C   UNL     1      19.936  35.223  15.128  0.00  0.00    +0.011 C 
ATOM      4  C   UNL     1      19.789  33.716  15.316  0.00  0.00    +0.061 C 
ATOM      5  C   UNL     1      18.749  33.124  14.344  0.00  0.00    +0.115 C 
ATOM      6  C   UNL     1      17.439  33.917  14.439  0.00  0.00    +0.092 C 
ATOM      7  C   UNL     1      17.412  35.230  14.921  0.00  0.00    -0.021 C 
ATOM      8  C   UNL     1      18.627  35.931  15.465  0.00  0.00    +0.037 C 
ATOM      9  C   UNL     1      16.174  35.881  14.979  0.00  0.00    +0.007 C 
ATOM     10  C   UNL     1      15.021  35.225  14.567  0.00  0.00    +0.020 C 
ATOM     11  C   UNL     1      15.140  33.935  14.094  0.00  0.00    +0.111 C 
ATOM     12  N   UNL     1      16.322  33.280  13.992  0.00  0.00    -0.254 NA
ENDBRANCH   1   5
BRANCH   1  13
ATOM     13  C   UNL     1      20.716  33.467  12.614  0.00  0.00    +0.132 C 
BRANCH  13  14
ATOM     14  C   UNL     1      21.747  32.326  12.581  0.00  0.00    +0.056 C 
BRANCH  14  15
ATOM     15  C   UNL     1      23.019  32.501  13.430  0.00  0.00    +0.056 C 
BRANCH  15  16
ATOM     16  C   UNL     1      24.336  32.125  12.744  0.00  0.00    +0.127 C 
BRANCH  16  17
ATOM     17  N   UNL     1      24.241  30.795  12.095  0.00  0.00    +0.219 N 
ATOM     18  H   UNL     1      23.496  30.762  11.382  0.00  0.00    +0.199 HD
ATOM     19  H   UNL     1      25.114  30.574  11.589  0.00  0.00    +0.199 HD
ATOM     20  H   UNL     1      24.080  30.013  12.744  0.00  0.00    +0.199 HD
ENDBRANCH  16  17
ENDBRANCH  15  16
ENDBRANCH  14  15
ENDBRANCH  13  14
ENDBRANCH   1  13
BRANCH   1  21
ATOM     21  C   UNL     1      18.848  31.800  12.145  0.00  0.00    +0.207 C 
BRANCH  21  22
ATOM     22  C   UNL     1      18.033  32.222  10.980  0.00  0.00    +0.154 A 
ATOM     23  N   UNL     1      17.406  33.380  10.921  0.00  0.00    -0.227 NA
ATOM     24  C   UNL     1      16.747  33.372   9.713  0.00  0.00    +0.089 A 
ATOM     25  C   UNL     1      15.964  34.366   9.110  0.00  0.00    +0.030 C 
ATOM     26  C   UNL     1      15.384  34.096   7.865  0.00  0.00    +0.002 C 
ATOM     27  C   UNL     1      15.574  32.862   7.239  0.00  0.00    +0.002 C 
ATOM     28  C   UNL     1      16.355  31.859   7.825  0.00  0.00    +0.028 C 
ATOM     29  C   UNL     1      16.932  32.157   9.060  0.00  0.00    +0.066 A 
ATOM     30  N   UNL     1      17.747  31.434   9.894  0.00  0.00    -0.338 N 
ATOM     31  H   UNL     1      18.050  30.482   9.734  0.00  0.00    +0.167 HD
ENDBRANCH  21  22
ENDBRANCH   1  21
TORSDOF 8
