REMARK  Name = =
REMARK  5 active torsions:
REMARK  status: ('A' for Active; 'I' for Inactive)
REMARK    1  A    between atoms: C_1  and  C_25
REMARK    2  A    between atoms: C_10  and  O_23
REMARK    3  A    between atoms: C_13  and  C_16
REMARK    4  A    between atoms: C_25  and  C_27
REMARK    5  A    between atoms: N_26  and  C_31
REMARK                            x       y       z     vdW  Elec       q    Type
REMARK                         _______ _______ _______ _____ _____    ______ ____
ROOT
ATOM      1  C   UNL     1      20.613  33.198  15.200  0.00  0.00    +0.182 C 
ATOM      2  C   UNL     1      19.328  33.310  15.942  0.00  0.00    +0.163 A 
ATOM      3  N   UNL     1      18.264  32.557  15.751  0.00  0.00    -0.132 NA
ATOM      4  N   UNL     1      17.275  33.003  16.577  0.00  0.00    -0.134 NA
ATOM      5  C   UNL     1      17.744  34.020  17.270  0.00  0.00    +0.135 A 
ATOM      6  N   UNL     1      19.053  34.274  16.887  0.00  0.00    -0.281 N 
ATOM      7  C   UNL     1      19.932  35.305  17.298  0.00  0.00    +0.059 C 
ATOM      8  C   UNL     1      21.321  35.110  17.345  0.00  0.00    +0.028 C 
ATOM      9  C   UNL     1      22.154  36.200  17.657  0.00  0.00    +0.057 C 
ATOM     10  C   UNL     1      21.628  37.461  17.941  0.00  0.00    +0.121 C 
ATOM     11  C   UNL     1      20.251  37.642  17.916  0.00  0.00    +0.048 C 
ATOM     12  C   UNL     1      19.407  36.574  17.591  0.00  0.00    +0.030 C 
ATOM     13  C   UNL     1      21.996  33.793  17.097  0.00  0.00    +0.076 C 
ATOM     14  N   UNL     1      21.723  32.979  16.135  0.00  0.00    -0.271 NA
ATOM     15  C   UNL     1      17.003  34.683  18.370  0.00  0.00    +0.088 C 
ENDROOT
BRANCH  13  16
ATOM     16  C   UNL     1      23.095  33.378  18.029  0.00  0.00    +0.001 C 
ATOM     17  C   UNL     1      22.828  33.080  19.373  0.00  0.00    +0.011 C 
ATOM     18  C   UNL     1      23.869  32.690  20.220  0.00  0.00    +0.020 C 
ATOM     19  C   UNL     1      25.169  32.591  19.724  0.00  0.00    +0.041 C 
ATOM     20  C   UNL     1      25.438  32.868  18.384  0.00  0.00    +0.020 C 
ATOM     21  C   UNL     1      24.400  33.255  17.534  0.00  0.00    +0.011 C 
ATOM     22 CL   UNL     1      26.448  32.115  20.772  0.00  0.00    -0.084 Cl
ENDBRANCH  13  16
BRANCH  10  23
ATOM     23  O   UNL     1      22.561  38.419  18.223  0.00  0.00    -0.495 OA
ATOM     24  C   UNL     1      23.923  38.082  17.984  0.00  0.00    +0.277 C 
ENDBRANCH  10  23
BRANCH   1  25
ATOM     25  C   UNL     1      20.926  34.308  14.200  0.00  0.00    +0.130 C 
BRANCH  25  27
ATOM     26  N   UNL     1      22.724  33.682  12.593  0.00  0.00    -0.315 N 
ATOM     27  C   UNL     1      21.397  33.791  12.862  0.00  0.00    +0.215 C 
ATOM     28  O   UNL     1      20.581  33.467  11.996  0.00  0.00    -0.276 OA
ATOM     29  H   UNL     1      22.907  33.318  11.664  0.00  0.00    +0.149 HD
BRANCH  26  31
ATOM     30  C   UNL     1      24.580  32.686  13.836  0.00  0.00    +0.024 C 
ATOM     31  C   UNL     1      23.870  33.965  13.434  0.00  0.00    +0.101 C 
ENDBRANCH  26  31
ENDBRANCH  25  27
ENDBRANCH   1  25
TORSDOF 5
