MODEL 1
REMARK minimizedAffinity -7.78224897
REMARK minimizedRMSD -1
REMARK  Name = 
REMARK  4 active torsions:
REMARK  status: ('A' for Active; 'I' for Inactive)
REMARK    1  A    between atoms: C_1  and  C_2
REMARK    2  A    between atoms: C_2  and  C_3
REMARK    3  A    between atoms: C_2  and  C_4
REMARK    4  A    between atoms: C_4  and  N_5
REMARK                            x       y       z     vdW  Elec       q    Type
REMARK                         _______ _______ _______ _____ _____    ______ ____
ROOT
ATOM      1  N   UNL     1      16.981  32.571  11.325  0.00  0.00    -0.329 N 
ATOM      2  C   UNL     1      18.099  31.908  10.887  0.00  0.00    +0.200 A 
ATOM      3  N   UNL     1      18.973  31.734  11.844  0.00  0.00    -0.232 NA
ATOM      4  C   UNL     1      18.392  32.296  12.965  0.00  0.00    +0.129 A 
ATOM      5  C   UNL     1      17.129  32.828  12.673  0.00  0.00    +0.081 A 
ATOM      6  C   UNL     1      16.354  33.447  13.695  0.00  0.00    +0.026 A 
ATOM      7  C   UNL     1      15.071  34.013  13.517  0.00  0.00    +0.012 A 
ATOM      8  C   UNL     1      14.401  34.596  14.592  0.00  0.00    +0.001 A 
ATOM      9  C   UNL     1      14.999  34.618  15.844  0.00  0.00    +0.002 A 
ATOM     10  C   UNL     1      16.268  34.059  16.019  0.00  0.00    +0.028 A 
ATOM     11  C   UNL     1      16.966  33.471  14.974  0.00  0.00    +0.075 A 
ATOM     12  N   UNL     1      18.176  32.963  15.246  0.00  0.00    -0.230 NA
ATOM     13  C   UNL     1      18.908  32.375  14.275  0.00  0.00    +0.145 A 
ATOM     14  N   UNL     1      20.142  31.871  14.616  0.00  0.00    -0.341 N 
ATOM     15  H   UNL     1      20.698  31.428  13.899  0.00  0.00    +0.144 HD
ATOM     16  H   UNL     1      20.444  31.963  15.571  0.00  0.00    +0.144 HD
ENDROOT
BRANCH   1  17
ATOM     17  C   UNL     1      15.859  32.869  10.457  0.00  0.00    +0.126 C 
BRANCH  17  19
ATOM     18  C   UNL     1      15.797  33.105   7.924  0.00  0.00    +0.009 C 
ATOM     19  C   UNL     1      16.223  33.748   9.246  0.00  0.00    +0.003 C 
ATOM     20  C   UNL     1      15.566  35.122   9.388  0.00  0.00    +0.009 C 
ENDBRANCH  17  19
ENDBRANCH   1  17
TORSDOF 2
ENDMDL
MODEL 2
REMARK minimizedAffinity -7.59337521
REMARK minimizedRMSD -1
REMARK  Name = 
REMARK  4 active torsions:
REMARK  status: ('A' for Active; 'I' for Inactive)
REMARK    1  A    between atoms: C_1  and  C_2
REMARK    2  A    between atoms: C_2  and  C_3
REMARK    3  A    between atoms: C_2  and  C_4
REMARK    4  A    between atoms: C_4  and  N_5
REMARK                            x       y       z     vdW  Elec       q    Type
REMARK                         _______ _______ _______ _____ _____    ______ ____
ROOT
ATOM      1  N   UNL     1      17.681  34.493  14.582  0.00  0.00    -0.329 N 
ATOM      2  C   UNL     1      18.744  34.506  15.448  0.00  0.00    +0.200 A 
ATOM      3  N   UNL     1      19.783  33.881  14.959  0.00  0.00    -0.232 NA
ATOM      4  C   UNL     1      19.385  33.453  13.707  0.00  0.00    +0.129 A 
ATOM      5  C   UNL     1      18.064  33.829  13.435  0.00  0.00    +0.081 A 
ATOM      6  C   UNL     1      17.460  33.493  12.189  0.00  0.00    +0.026 A 
ATOM      7  C   UNL     1      16.139  33.822  11.807  0.00  0.00    +0.012 A 
ATOM      8  C   UNL     1      15.650  33.441  10.558  0.00  0.00    +0.001 A 
ATOM      9  C   UNL     1      16.467  32.734   9.687  0.00  0.00    +0.002 A 
ATOM     10  C   UNL     1      17.772  32.408  10.067  0.00  0.00    +0.028 A 
ATOM     11  C   UNL     1      18.294  32.770  11.299  0.00  0.00    +0.075 A 
ATOM     12  N   UNL     1      19.557  32.409  11.568  0.00  0.00    -0.230 NA
ATOM     13  C   UNL     1      20.127  32.731  12.749  0.00  0.00    +0.145 A 
ATOM     14  N   UNL     1      21.427  32.335  12.965  0.00  0.00    -0.341 N 
ATOM     15  H   UNL     1      21.864  32.571  13.844  0.00  0.00    +0.144 HD
ATOM     16  H   UNL     1      21.894  31.824  12.235  0.00  0.00    +0.144 HD
ENDROOT
BRANCH   1  17
ATOM     17  C   UNL     1      16.417  35.136  14.887  0.00  0.00    +0.126 C 
BRANCH  17  19
ATOM     18  C   UNL     1      15.229  34.247  16.955  0.00  0.00    +0.009 C 
ATOM     19  C   UNL     1      15.343  34.175  15.430  0.00  0.00    +0.003 C 
ATOM     20  C   UNL     1      13.990  34.500  14.794  0.00  0.00    +0.009 C 
ENDBRANCH  17  19
ENDBRANCH   1  17
TORSDOF 2
ENDMDL
MODEL 3
REMARK minimizedAffinity -7.5834446
REMARK minimizedRMSD -1
REMARK  Name = 
REMARK  4 active torsions:
REMARK  status: ('A' for Active; 'I' for Inactive)
REMARK    1  A    between atoms: C_1  and  C_2
REMARK    2  A    between atoms: C_2  and  C_3
REMARK    3  A    between atoms: C_2  and  C_4
REMARK    4  A    between atoms: C_4  and  N_5
REMARK                            x       y       z     vdW  Elec       q    Type
REMARK                         _______ _______ _______ _____ _____    ______ ____
ROOT
ATOM      1  N   UNL     1      15.832  34.000  13.050  0.00  0.00    -0.329 N 
ATOM      2  C   UNL     1      14.900  33.441  12.214  0.00  0.00    +0.200 A 
ATOM      3  N   UNL     1      15.450  32.681  11.303  0.00  0.00    -0.232 NA
ATOM      4  C   UNL     1      16.805  32.733  11.566  0.00  0.00    +0.129 A 
ATOM      5  C   UNL     1      17.081  33.553  12.668  0.00  0.00    +0.081 A 
ATOM      6  C   UNL     1      18.421  33.736  13.114  0.00  0.00    +0.026 A 
ATOM      7  C   UNL     1      18.815  34.536  14.211  0.00  0.00    +0.012 A 
ATOM      8  C   UNL     1      20.160  34.644  14.559  0.00  0.00    +0.001 A 
ATOM      9  C   UNL     1      21.118  33.961  13.822  0.00  0.00    +0.002 A 
ATOM     10  C   UNL     1      20.728  33.172  12.736  0.00  0.00    +0.028 A 
ATOM     11  C   UNL     1      19.400  33.040  12.360  0.00  0.00    +0.075 A 
ATOM     12  N   UNL     1      19.130  32.259  11.303  0.00  0.00    -0.230 NA
ATOM     13  C   UNL     1      17.857  32.086  10.885  0.00  0.00    +0.145 A 
ATOM     14  N   UNL     1      17.644  31.272   9.797  0.00  0.00    -0.341 N 
ATOM     15  H   UNL     1      16.697  31.133   9.475  0.00  0.00    +0.144 HD
ATOM     16  H   UNL     1      18.443  30.843   9.361  0.00  0.00    +0.144 HD
ENDROOT
BRANCH   1  17
ATOM     17  C   UNL     1      15.472  34.868  14.153  0.00  0.00    +0.126 C 
BRANCH  17  19
ATOM     18  C   UNL     1      15.800  34.521  16.653  0.00  0.00    +0.009 C 
ATOM     19  C   UNL     1      15.001  34.116  15.412  0.00  0.00    +0.003 C 
ATOM     20  C   UNL     1      13.512  34.382  15.646  0.00  0.00    +0.009 C 
ENDBRANCH  17  19
ENDBRANCH   1  17
TORSDOF 2
ENDMDL
MODEL 4
REMARK minimizedAffinity -7.54118252
REMARK minimizedRMSD -1
REMARK  Name = 
REMARK  4 active torsions:
REMARK  status: ('A' for Active; 'I' for Inactive)
REMARK    1  A    between atoms: C_1  and  C_2
REMARK    2  A    between atoms: C_2  and  C_3
REMARK    3  A    between atoms: C_2  and  C_4
REMARK    4  A    between atoms: C_4  and  N_5
REMARK                            x       y       z     vdW  Elec       q    Type
REMARK                         _______ _______ _______ _____ _____    ______ ____
ROOT
ATOM      1  N   UNL     1      19.895  33.561  13.583  0.00  0.00    -0.329 N 
ATOM      2  C   UNL     1      20.748  32.926  12.717  0.00  0.00    +0.200 A 
ATOM      3  N   UNL     1      20.108  32.334  11.743  0.00  0.00    -0.232 NA
ATOM      4  C   UNL     1      18.773  32.608  11.974  0.00  0.00    +0.129 A 
ATOM      5  C   UNL     1      18.604  33.388  13.126  0.00  0.00    +0.081 A 
ATOM      6  C   UNL     1      17.302  33.791  13.539  0.00  0.00    +0.026 A 
ATOM      7  C   UNL     1      17.015  34.577  14.679  0.00  0.00    +0.012 A 
ATOM      8  C   UNL     1      15.698  34.913  14.990  0.00  0.00    +0.001 A 
ATOM      9  C   UNL     1      14.665  34.473  14.174  0.00  0.00    +0.002 A 
ATOM     10  C   UNL     1      14.951  33.695  13.048  0.00  0.00    +0.028 A 
ATOM     11  C   UNL     1      16.247  33.340  12.706  0.00  0.00    +0.075 A 
ATOM     12  N   UNL     1      16.415  32.592  11.607  0.00  0.00    -0.230 NA
ATOM     13  C   UNL     1      17.651  32.212  11.217  0.00  0.00    +0.145 A 
ATOM     14  N   UNL     1      17.760  31.447  10.079  0.00  0.00    -0.341 N 
ATOM     15  H   UNL     1      18.678  31.158   9.776  0.00  0.00    +0.144 HD
ATOM     16  H   UNL     1      16.915  31.203   9.589  0.00  0.00    +0.144 HD
ENDROOT
BRANCH   1  17
ATOM     17  C   UNL     1      20.363  34.304  14.736  0.00  0.00    +0.126 C 
BRANCH  17  19
ATOM     18  C   UNL     1      20.043  36.783  15.217  0.00  0.00    +0.009 C 
ATOM     19  C   UNL     1      20.819  35.738  14.411  0.00  0.00    +0.003 C 
ATOM     20  C   UNL     1      22.318  35.880  14.689  0.00  0.00    +0.009 C 
ENDBRANCH  17  19
ENDBRANCH   1  17
TORSDOF 2
ENDMDL
MODEL 5
REMARK minimizedAffinity -7.40953732
REMARK minimizedRMSD -1
REMARK  Name = 
REMARK  4 active torsions:
REMARK  status: ('A' for Active; 'I' for Inactive)
REMARK    1  A    between atoms: C_1  and  C_2
REMARK    2  A    between atoms: C_2  and  C_3
REMARK    3  A    between atoms: C_2  and  C_4
REMARK    4  A    between atoms: C_4  and  N_5
REMARK                            x       y       z     vdW  Elec       q    Type
REMARK                         _______ _______ _______ _____ _____    ______ ____
ROOT
ATOM      1  N   UNL     1      17.283  32.708  13.123  0.00  0.00    -0.329 N 
ATOM      2  C   UNL     1      18.499  32.075  13.080  0.00  0.00    +0.200 A 
ATOM      3  N   UNL     1      19.120  32.127  14.229  0.00  0.00    -0.232 NA
ATOM      4  C   UNL     1      18.263  32.813  15.068  0.00  0.00    +0.129 A 
ATOM      5  C   UNL     1      17.088  33.188  14.402  0.00  0.00    +0.081 A 
ATOM      6  C   UNL     1      16.064  33.899  15.091  0.00  0.00    +0.026 A 
ATOM      7  C   UNL     1      14.842  34.325  14.522  0.00  0.00    +0.012 A 
ATOM      8  C   UNL     1      13.908  35.016  15.292  0.00  0.00    +0.001 A 
ATOM      9  C   UNL     1      14.182  35.286  16.626  0.00  0.00    +0.002 A 
ATOM     10  C   UNL     1      15.392  34.866  17.187  0.00  0.00    +0.028 A 
ATOM     11  C   UNL     1      16.345  34.176  16.453  0.00  0.00    +0.075 A 
ATOM     12  N   UNL     1      17.473  33.818  17.083  0.00  0.00    -0.230 NA
ATOM     13  C   UNL     1      18.441  33.142  16.427  0.00  0.00    +0.145 A 
ATOM     14  N   UNL     1      19.574  32.800  17.129  0.00  0.00    -0.341 N 
ATOM     15  H   UNL     1      20.304  32.294  16.650  0.00  0.00    +0.144 HD
ATOM     16  H   UNL     1      19.631  33.068  18.097  0.00  0.00    +0.144 HD
ENDROOT
BRANCH   1  17
ATOM     17  C   UNL     1      16.395  32.772  11.979  0.00  0.00    +0.126 C 
BRANCH  17  19
ATOM     18  C   UNL     1      17.317  32.185   9.681  0.00  0.00    +0.009 C 
ATOM     19  C   UNL     1      17.064  33.301  10.697  0.00  0.00    +0.003 C 
ATOM     20  C   UNL     1      16.189  34.386  10.067  0.00  0.00    +0.009 C 
ENDBRANCH  17  19
ENDBRANCH   1  17
TORSDOF 2
ENDMDL
