REMARK  Name = 
REMARK  0 active torsions:
REMARK  status: ('A' for Active; 'I' for Inactive)
REMARK                            x       y       z     vdW  Elec       q    Type
REMARK                         _______ _______ _______ _____ _____    ______ ____
ROOT
ATOM      1  C   UNL     1      -2.456   1.046   0.043  0.00  0.00    +0.001 A 
ATOM      2  C   UNL     1      -2.753  -0.309  -0.010  0.00  0.00    +0.002 A 
ATOM      3  C   UNL     1      -1.717  -1.247  -0.037  0.00  0.00    +0.028 A 
ATOM      4  C   UNL     1      -0.380  -0.868  -0.015  0.00  0.00    +0.076 A 
ATOM      5  C   UNL     1      -0.074   0.499   0.031  0.00  0.00    +0.040 A 
ATOM      6  C   UNL     1      -1.123   1.453   0.066  0.00  0.00    +0.013 A 
ATOM      7  C   UNL     1       1.294   0.804   0.045  0.00  0.00    +0.127 A 
ATOM      8  N   UNL     1       2.252  -0.131   0.049  0.00  0.00    -0.221 NA
ATOM      9  C   UNL     1       1.833  -1.401   0.005  0.00  0.00    +0.223 A 
ATOM     10  N   UNL     1       0.562  -1.817  -0.035  0.00  0.00    -0.235 NA
ATOM     11  N   UNL     1       1.760   2.110   0.103  0.00  0.00    -0.343 N 
ATOM     12  H   UNL     1       1.312   2.783  -0.501  0.00  0.00    +0.144 HD
ATOM     13  H   UNL     1       2.773   2.142   0.133  0.00  0.00    +0.144 HD
ENDROOT
TORSDOF 0
