REMARK  Name = =
REMARK  6 active torsions:
REMARK  status: ('A' for Active; 'I' for Inactive)
REMARK    1  A    between atoms: C_1  and  O_24
REMARK    2  A    between atoms: C_4  and  N_7
REMARK    3  A    between atoms: N_10  and  C_13
REMARK    4  A    between atoms: C_15  and  C_20
REMARK    5  A    between atoms: O_24  and  C_29
REMARK    6  A    between atoms: C_25  and  C_33
REMARK                            x       y       z     vdW  Elec       q    Type
REMARK                         _______ _______ _______ _____ _____    ______ ____
ROOT
ATOM      1  C   UNL     1      17.164  32.353  11.847  0.00  0.00    +0.129 C 
ATOM      2  C   UNL     1      18.278  33.003  11.319  0.00  0.00    +0.048 C 
ATOM      3  C   UNL     1      19.375  33.282  12.142  0.00  0.00    +0.027 C 
ATOM      4  C   UNL     1      19.355  32.928  13.493  0.00  0.00    +0.035 C 
ATOM      5  C   UNL     1      18.240  32.248  14.001  0.00  0.00    +0.027 C 
ATOM      6  C   UNL     1      17.149  31.954  13.180  0.00  0.00    +0.048 C 
ENDROOT
BRANCH   4   7
ATOM      7  N   UNL     1      20.431  33.136  14.377  0.00  0.00    -0.269 N 
ATOM      8  C   UNL     1      20.918  34.260  14.954  0.00  0.00    +0.308 C 
ATOM      9  O   UNL     1      22.132  34.346  15.149  0.00  0.00    -0.252 OA
ATOM     10  N   UNL     1      20.129  35.294  15.328  0.00  0.00    -0.269 N 
ATOM     11  H   UNL     1      21.087  32.368  14.462  0.00  0.00    +0.156 HD
ATOM     12  H   UNL     1      20.661  36.154  15.404  0.00  0.00    +0.156 HD
BRANCH  10  13
ATOM     13  C   UNL     1      18.822  35.325  15.846  0.00  0.00    +0.035 C 
ATOM     14  C   UNL     1      17.767  35.221  14.931  0.00  0.00    +0.037 C 
ATOM     15  C   UNL     1      16.421  35.263  15.349  0.00  0.00    +0.075 C 
ATOM     16  C   UNL     1      16.151  35.430  16.711  0.00  0.00    +0.053 C 
ATOM     17  C   UNL     1      17.199  35.563  17.625  0.00  0.00    +0.022 C 
ATOM     18  C   UNL     1      18.528  35.519  17.194  0.00  0.00    +0.025 C 
ATOM     19 CL   UNL     1      14.542  35.494  17.328  0.00  0.00    -0.083 Cl
BRANCH  15  20
ATOM     20  C   UNL     1      15.316  35.135  14.337  0.00  0.00    +0.419 C 
ATOM     21  F   UNL     1      14.501  34.070  14.568  0.00  0.00    -0.166 F 
ATOM     22  F   UNL     1      14.489  36.222  14.316  0.00  0.00    -0.166 F 
ATOM     23  F   UNL     1      15.771  35.009  13.061  0.00  0.00    -0.166 F 
ENDBRANCH  15  20
ENDBRANCH  10  13
ENDBRANCH   4   7
BRANCH   1  24
ATOM     24  O   UNL     1      16.103  31.991  11.053  0.00  0.00    -0.456 OA
BRANCH  24  29
ATOM     25  C   UNL     1      16.700  31.642   7.498  0.00  0.00    +0.129 C 
ATOM     26  N   UNL     1      16.263  32.819   6.979  0.00  0.00    -0.250 NA
ATOM     27  C   UNL     1      15.784  33.734   7.850  0.00  0.00    +0.115 C 
ATOM     28  C   UNL     1      15.719  33.535   9.217  0.00  0.00    +0.066 C 
ATOM     29  C   UNL     1      16.187  32.326   9.721  0.00  0.00    +0.132 C 
ATOM     30  C   UNL     1      16.681  31.357   8.858  0.00  0.00    +0.079 C 
BRANCH  25  33
ATOM     31  C   UNL     1      15.037  29.485   6.117  0.00  0.00    +0.128 C 
ATOM     32  N   UNL     1      16.452  29.696   5.933  0.00  0.00    -0.313 N 
ATOM     33  C   UNL     1      17.263  30.612   6.566  0.00  0.00    +0.262 C 
ATOM     34  O   UNL     1      18.477  30.565   6.367  0.00  0.00    -0.269 OA
ATOM     35  H   UNL     1      16.951  29.086   5.298  0.00  0.00    +0.149 HD
ENDBRANCH  25  33
ENDBRANCH  24  29
ENDBRANCH   1  24
TORSDOF 6
