REMARK  Name = 
REMARK  6 active torsions:
REMARK  status: ('A' for Active; 'I' for Inactive)
REMARK    1  A    between atoms: C_1  and  C_2
REMARK    2  A    between atoms: N_7  and  C_8
REMARK    3  A    between atoms: N_18  and  C_19
REMARK    4  A    between atoms: C_22  and  O_25
REMARK    5  A    between atoms: O_25  and  C_26
REMARK    6  A    between atoms: C_26  and  C_27
REMARK                            x       y       z     vdW  Elec       q    Type
REMARK                         _______ _______ _______ _____ _____    ______ ____
ROOT
ATOM      1  C   UNL     1       2.221  -4.907  -0.545  0.00  0.00    +0.040 A 
ATOM      2  C   UNL     1       2.630  -6.089  -1.173  0.00  0.00    +0.037 A 
ATOM      3  C   UNL     1       3.808  -6.781  -0.778  0.00  0.00    +0.042 A 
ATOM      4  C   UNL     1       4.570  -6.287   0.286  0.00  0.00    +0.076 A 
ATOM      5  C   UNL     1       4.152  -5.123   0.912  0.00  0.00    +0.030 A 
ATOM      6  C   UNL     1       2.992  -4.441   0.518  0.00  0.00    +0.025 A 
ATOM      7  N   UNL     1       5.663  -6.892   0.744  0.00  0.00    -0.235 NA
ATOM      8  C   UNL     1       6.009  -8.039   0.149  0.00  0.00    +0.223 A 
ATOM      9  N   UNL     1       5.365  -8.611  -0.870  0.00  0.00    -0.220 NA
ATOM     10  C   UNL     1       4.281  -7.977  -1.348  0.00  0.00    +0.134 A 
ATOM     11  N   UNL     1       3.617  -8.535  -2.462  0.00  0.00    -0.299 N 
ATOM     12  H   UNL     1       3.530  -7.886  -3.232  0.00  0.00    +0.154 HD
ENDROOT
BRANCH   1  19
ATOM     13  C   UNL     1       0.692   0.036   0.651  0.00  0.00    +0.089 C 
ATOM     14  C   UNL     1       0.542  -0.846  -0.567  0.00  0.00    +0.299 C 
ATOM     15  C   UNL     1      -0.824  -1.495  -0.701  0.00  0.00    +0.311 C 
ATOM     16  O   UNL     1      -0.567  -2.823  -1.194  0.00  0.00    -0.425 OA
ATOM     17  C   UNL     1       0.694  -3.085  -0.830  0.00  0.00    +0.444 C 
ATOM     18  N   UNL     1       1.382  -2.027  -0.452  0.00  0.00    -0.190 N 
ATOM     19  N   UNL     1       1.052  -4.340  -0.945  0.00  0.00    -0.229 N 
ATOM     20  H   UNL     1       2.373  -2.064  -0.265  0.00  0.00    +0.451 HD
ATOM     21  H   UNL     1       0.352  -4.918  -1.400  0.00  0.00    +0.161 HD
ENDBRANCH   1  19
BRANCH  11  22
ATOM     22  C   UNL     1       3.557  -9.891  -2.839  0.00  0.00    +0.034 A 
ATOM     23  C   UNL     1       3.584 -10.927  -1.894  0.00  0.00    +0.047 A 
ATOM     24  C   UNL     1       3.521 -12.266  -2.291  0.00  0.00    +0.084 A 
ATOM     25  C   UNL     1       3.470 -12.587  -3.649  0.00  0.00    +0.139 A 
ATOM     26  C   UNL     1       3.392 -11.566  -4.597  0.00  0.00    +0.049 A 
ATOM     27  C   UNL     1       3.436 -10.229  -4.194  0.00  0.00    +0.027 A 
ATOM     28 CL   UNL     1       3.450 -13.476  -1.060  0.00  0.00    -0.080 Cl
BRANCH  25  29
ATOM     29  O   UNL     1       3.411 -13.871  -4.124  0.00  0.00    -0.484 OA
BRANCH  29  30
ATOM     30  C   UNL     1       4.676 -14.556  -4.031  0.00  0.00    +0.291 C 
BRANCH  30  31
ATOM     31  C   UNL     1       5.574 -14.133  -5.158  0.00  0.00    +0.116 A 
ATOM     32  N   UNL     1       6.617 -13.337  -5.017  0.00  0.00    -0.249 NA
ATOM     33  C   UNL     1       7.241 -13.163  -6.235  0.00  0.00    +0.119 A 
ATOM     34  C   UNL     1       6.664 -13.822  -7.298  0.00  0.00    +0.066 A 
ATOM     35  S   UNL     1       5.292 -14.697  -6.761  0.00  0.00    -0.077 S 
ENDBRANCH  30  31
ENDBRANCH  29  30
ENDBRANCH  25  29
ENDBRANCH  11  22
TORSDOF 5
