REMARK  Name = 
REMARK  1 active torsions:
REMARK  status: ('A' for Active; 'I' for Inactive)
REMARK    1  A    between atoms: C_7  and  N_15
REMARK                            x       y       z     vdW  Elec       q    Type
REMARK                         _______ _______ _______ _____ _____    ______ ____
ROOT
ATOM      1  C   UNL     1      -3.681  -0.630  -0.003  0.00  0.00    +0.001 A 
ATOM      2  C   UNL     1      -3.589   0.752  -0.000  0.00  0.00    +0.002 A 
ATOM      3  C   UNL     1      -2.332   1.355   0.002  0.00  0.00    +0.028 A 
ATOM      4  C   UNL     1      -1.157   0.615   0.003  0.00  0.00    +0.073 A 
ATOM      5  C   UNL     1      -1.227  -0.792  -0.000  0.00  0.00    +0.022 A 
ATOM      6  C   UNL     1      -2.513  -1.395  -0.004  0.00  0.00    +0.012 A 
ATOM      7  C   UNL     1       0.005  -1.507   0.007  0.00  0.00    +0.043 A 
ATOM      8  C   UNL     1       1.233  -0.785  -0.000  0.00  0.00    +0.022 A 
ATOM      9  C   UNL     1       2.523  -1.380  -0.004  0.00  0.00    +0.012 A 
ATOM     10  C   UNL     1       3.686  -0.609  -0.003  0.00  0.00    +0.001 A 
ATOM     11  C   UNL     1       3.587   0.772  -0.001  0.00  0.00    +0.002 A 
ATOM     12  C   UNL     1       2.326   1.369   0.001  0.00  0.00    +0.028 A 
ATOM     13  C   UNL     1       1.155   0.622   0.002  0.00  0.00    +0.073 A 
ATOM     14  N   UNL     1      -0.003   1.292   0.005  0.00  0.00    -0.247 NA
ENDROOT
BRANCH   7  15
ATOM     15  N   UNL     1       0.009  -2.909  -0.043  0.00  0.00    -0.357 N 
ATOM     16  H   UNL     1      -0.848  -3.435   0.029  0.00  0.00    +0.142 HD
ATOM     17  H   UNL     1       0.869  -3.430   0.029  0.00  0.00    +0.142 HD
ENDBRANCH   7  15
TORSDOF 1
