REMARK  Name = =
REMARK  9 active torsions:
REMARK  status: ('A' for Active; 'I' for Inactive)
REMARK    1  A    between atoms: N_1  and  C_2
REMARK    2  A    between atoms: N_1  and  C_25
REMARK    3  A    between atoms: C_7  and  C_14
REMARK    4  A    between atoms: C_12  and  C_35
REMARK    5  A    between atoms: N_16  and  C_18
REMARK    6  A    between atoms: C_18  and  C_19
REMARK    7  A    between atoms: C_25  and  C_29
REMARK    8  A    between atoms: C_26  and  O_34
REMARK    9  A    between atoms: C_35  and  O_36
REMARK                            x       y       z     vdW  Elec       q    Type
REMARK                         _______ _______ _______ _____ _____    ______ ____
ROOT
ATOM      1  C   UNL     1      20.039  32.653  12.942  0.00  0.00    +0.136 C 
ATOM      2  N   UNL     1      21.355  32.575  12.661  0.00  0.00    -0.199 NA
ATOM      3  C   UNL     1      22.253  32.659  13.659  0.00  0.00    +0.220 C 
ATOM      4  N   UNL     1      21.898  32.806  14.942  0.00  0.00    -0.222 NA
ATOM      5  C   UNL     1      20.580  32.851  15.211  0.00  0.00    +0.131 C 
ATOM      6  C   UNL     1      19.605  32.750  14.247  0.00  0.00    +0.094 C 
ATOM      7  N   UNL     1      23.578  32.603  13.350  0.00  0.00    -0.294 N 
ATOM      8  C   UNL     1      24.608  32.581  14.369  0.00  0.00    +0.108 C 
ATOM      9  C   UNL     1      25.904  32.597  13.561  0.00  0.00    +0.021 C 
ATOM     10  C   UNL     1      25.520  31.873  12.277  0.00  0.00    +0.026 C 
ATOM     11  C   UNL     1      24.081  32.351  12.004  0.00  0.00    +0.102 C 
ENDROOT
BRANCH   6  12
ATOM     12  C   UNL     1      18.212  32.740  14.690  0.00  0.00    +0.249 C 
ATOM     13  O   UNL     1      17.560  31.707  14.584  0.00  0.00    -0.270 OA
ATOM     14  N   UNL     1      17.651  33.885  15.187  0.00  0.00    -0.304 N 
ATOM     15  H   UNL     1      16.692  33.795  15.505  0.00  0.00    +0.149 HD
BRANCH  14  16
ATOM     16  C   UNL     1      18.276  35.197  15.333  0.00  0.00    +0.180 C 
BRANCH  16  17
ATOM     17  C   UNL     1      18.465  35.584  16.784  0.00  0.00    +0.146 C 
ATOM     18  N   UNL     1      18.075  34.706  17.731  0.00  0.00    -0.239 NA
ATOM     19  C   UNL     1      18.290  35.069  19.010  0.00  0.00    +0.114 C 
ATOM     20  C   UNL     1      18.872  36.259  19.374  0.00  0.00    +0.039 C 
ATOM     21  C   UNL     1      19.239  37.083  18.337  0.00  0.00    +0.114 C 
ATOM     22  N   UNL     1      19.055  36.773  17.040  0.00  0.00    -0.239 NA
ENDBRANCH  16  17
ENDBRANCH  14  16
ENDBRANCH   6  12
BRANCH   1  23
ATOM     23  N   UNL     1      19.249  32.609  11.813  0.00  0.00    -0.324 N 
ATOM     24  H   UNL     1      19.827  32.488  10.986  0.00  0.00    +0.148 HD
BRANCH  23  25
ATOM     25  C   UNL     1      18.087  33.459  11.647  0.00  0.00    +0.138 C 
BRANCH  25  29
ATOM     26  C   UNL     1      16.132  32.371   7.958  0.00  0.00    +0.138 C 
ATOM     27  C   UNL     1      15.879  33.617   8.537  0.00  0.00    +0.083 C 
ATOM     28  C   UNL     1      16.512  33.973   9.732  0.00  0.00    +0.028 C 
ATOM     29  C   UNL     1      17.383  33.073  10.367  0.00  0.00    -0.029 C 
ATOM     30  C   UNL     1      17.619  31.819   9.781  0.00  0.00    +0.009 C 
ATOM     31  C   UNL     1      16.987  31.464   8.588  0.00  0.00    +0.047 C 
ATOM     32 CL   UNL     1      14.801  34.750   7.805  0.00  0.00    -0.080 Cl
BRANCH  26  34
ATOM     33  C   UNL     1      14.753  30.784   7.037  0.00  0.00    +0.277 C 
ATOM     34  O   UNL     1      15.497  31.981   6.807  0.00  0.00    -0.494 OA
ENDBRANCH  26  34
ENDBRANCH  25  29
ENDBRANCH  23  25
ENDBRANCH   1  23
BRANCH  11  35
ATOM     35  C   UNL     1      24.027  33.623  11.139  0.00  0.00    +0.178 C 
BRANCH  35  36
ATOM     36  O   UNL     1      24.646  33.427   9.867  0.00  0.00    -0.393 OA
ATOM     37  H   UNL     1      25.596  33.594   9.978  0.00  0.00    +0.209 HD
ENDBRANCH  35  36
ENDBRANCH  11  35
TORSDOF 9
