MODEL 1
REMARK minimizedAffinity -10.7953873
REMARK minimizedRMSD -1
REMARK  Name = 
REMARK  9 active torsions:
REMARK  status: ('A' for Active; 'I' for Inactive)
REMARK    1  A    between atoms: C_1  and  N_2
REMARK    2  A    between atoms: N_2  and  C_3
REMARK    3  A    between atoms: N_2  and  C_4
REMARK    4  A    between atoms: C_4  and  C_5
REMARK    5  A    between atoms: C_6  and  C_7
REMARK    6  A    between atoms: N_9  and  C_10
REMARK    7  A    between atoms: C_11  and  O_29
REMARK    8  A    between atoms: N_20  and  C_21
REMARK    9  A    between atoms: O_29  and  C_30
REMARK                            x       y       z     vdW  Elec       q    Type
REMARK                         _______ _______ _______ _____ _____    ______ ____
ROOT
ATOM      1  C   UNL     1      19.800  32.712  12.799  0.00  0.00    +0.077 A 
ATOM      2  C   UNL     1      18.988  33.098  13.827  0.00  0.00    +0.144 A 
ATOM      3  C   UNL     1      17.636  33.345  13.657  0.00  0.00    +0.076 A 
ATOM      4  C   UNL     1      17.025  33.087  12.447  0.00  0.00    +0.080 A 
ATOM      5  C   UNL     1      17.799  32.580  11.389  0.00  0.00    +0.042 A 
ATOM      6  C   UNL     1      19.212  32.465  11.555  0.00  0.00    +0.040 A 
ATOM      7  C   UNL     1      17.053  32.164  10.266  0.00  0.00    +0.134 A 
ATOM      8  N   UNL     1      15.724  32.365  10.188  0.00  0.00    -0.220 NA
ATOM      9  C   UNL     1      15.118  32.923  11.236  0.00  0.00    +0.223 A 
ATOM     10  N   UNL     1      15.709  33.273  12.378  0.00  0.00    -0.235 NA
ATOM     11  N   UNL     1      17.686  31.440   9.227  0.00  0.00    -0.299 N 
ATOM     12  H   UNL     1      18.494  30.920   9.535  0.00  0.00    +0.154 HD
ENDROOT
BRANCH  11  13
ATOM     13  C   UNL     1      17.105  30.907   8.054  0.00  0.00    +0.034 A 
ATOM     14  C   UNL     1      15.736  30.599   8.054  0.00  0.00    +0.046 A 
ATOM     15  C   UNL     1      15.103  30.162   6.887  0.00  0.00    +0.078 A 
ATOM     16  C   UNL     1      15.836  30.014   5.714  0.00  0.00    +0.142 A 
ATOM     17  C   UNL     1      17.196  30.292   5.698  0.00  0.00    +0.041 A 
ATOM     18  C   UNL     1      17.826  30.736   6.864  0.00  0.00    +0.026 A 
ATOM     19  F   UNL     1      15.245  29.610   4.580  0.00  0.00    -0.204 F 
ATOM     20 CL   UNL     1      13.413  29.835   6.916  0.00  0.00    -0.081 Cl
ENDBRANCH  11  13
BRANCH   1  23
ATOM     21  C   UNL     1      22.903  32.771  14.023  0.00  0.00    +0.241 C 
ATOM     22  O   UNL     1      24.084  32.406  13.765  0.00  0.00    -0.271 OA
ATOM     23  N   UNL     1      21.254  32.417  13.025  0.00  0.00    -0.279 N 
ATOM     24  H   UNL     1      21.295  31.425  12.710  0.00  0.00    +0.155 HD
BRANCH  21  26
ATOM     25  C   UNL     1      22.535  33.725  16.685  0.00  0.00    +0.028 C 
ATOM     26  C   UNL     1      23.190  33.560  15.512  0.00  0.00    +0.068 C 
BRANCH  25  27
ATOM     27  C   UNL     1      23.011  34.504  17.868  0.00  0.00    +0.159 C 
BRANCH  27  29
ATOM     28  C   UNL     1      22.586  32.788  19.705  0.00  0.00    +0.190 C 
ATOM     29  N   UNL     1      22.264  34.147  19.137  0.00  0.00    +0.234 N 
ATOM     30  C   UNL     1      22.442  35.213  20.185  0.00  0.00    +0.190 C 
ATOM     31  H   UNL     1      21.264  34.134  18.895  0.00  0.00    +0.203 HD
ENDBRANCH  27  29
ENDBRANCH  25  27
ENDBRANCH  21  26
ENDBRANCH   1  23
BRANCH   2  32
ATOM     32  O   UNL     1      19.533  33.140  15.048  0.00  0.00    -0.485 OA
BRANCH  32  33
ATOM     33  C   UNL     1      19.001  34.311  15.665  0.00  0.00    +0.201 C 
ATOM     34  C   UNL     1      19.948  36.014  15.177  0.00  0.00    +0.075 C 
ATOM     35  C   UNL     1      20.445  36.972  16.859  0.00  0.00    +0.163 C 
ATOM     36  O   UNL     1      19.692  35.955  18.332  0.00  0.00    -0.376 OA
ATOM     37  C   UNL     1      18.853  34.300  17.729  0.00  0.00    +0.204 C 
ENDBRANCH  32  33
ENDBRANCH   2  32
TORSDOF 7
ENDMDL
MODEL 2
REMARK minimizedAffinity -10.4867945
REMARK minimizedRMSD -1
REMARK  Name = 
REMARK  9 active torsions:
REMARK  status: ('A' for Active; 'I' for Inactive)
REMARK    1  A    between atoms: C_1  and  N_2
REMARK    2  A    between atoms: N_2  and  C_3
REMARK    3  A    between atoms: N_2  and  C_4
REMARK    4  A    between atoms: C_4  and  C_5
REMARK    5  A    between atoms: C_6  and  C_7
REMARK    6  A    between atoms: N_9  and  C_10
REMARK    7  A    between atoms: C_11  and  O_29
REMARK    8  A    between atoms: N_20  and  C_21
REMARK    9  A    between atoms: O_29  and  C_30
REMARK                            x       y       z     vdW  Elec       q    Type
REMARK                         _______ _______ _______ _____ _____    ______ ____
ROOT
ATOM      1  C   UNL     1      20.170  33.473  16.705  0.00  0.00    +0.077 A 
ATOM      2  C   UNL     1      21.512  33.726  16.723  0.00  0.00    +0.144 A 
ATOM      3  C   UNL     1      22.323  33.528  15.618  0.00  0.00    +0.076 A 
ATOM      4  C   UNL     1      21.775  33.178  14.402  0.00  0.00    +0.080 A 
ATOM      5  C   UNL     1      20.382  33.016  14.306  0.00  0.00    +0.042 A 
ATOM      6  C   UNL     1      19.590  33.095  15.491  0.00  0.00    +0.040 A 
ATOM      7  C   UNL     1      19.900  32.856  12.989  0.00  0.00    +0.134 A 
ATOM      8  N   UNL     1      20.739  32.742  11.941  0.00  0.00    -0.220 NA
ATOM      9  C   UNL     1      22.046  32.843  12.178  0.00  0.00    +0.223 A 
ATOM     10  N   UNL     1      22.604  33.080  13.366  0.00  0.00    -0.235 NA
ATOM     11  N   UNL     1      18.508  32.900  12.735  0.00  0.00    -0.299 N 
ATOM     12  H   UNL     1      17.995  33.444  13.414  0.00  0.00    +0.154 HD
ENDROOT
BRANCH  11  13
ATOM     13  C   UNL     1      17.843  32.802  11.493  0.00  0.00    +0.034 A 
ATOM     14  C   UNL     1      17.042  33.873  11.065  0.00  0.00    +0.046 A 
ATOM     15  C   UNL     1      16.446  33.856   9.801  0.00  0.00    +0.078 A 
ATOM     16  C   UNL     1      16.631  32.764   8.959  0.00  0.00    +0.142 A 
ATOM     17  C   UNL     1      17.401  31.685   9.373  0.00  0.00    +0.041 A 
ATOM     18  C   UNL     1      18.003  31.706  10.634  0.00  0.00    +0.026 A 
ATOM     19  F   UNL     1      16.080  32.736   7.738  0.00  0.00    -0.204 F 
ATOM     20 CL   UNL     1      15.506  35.208   9.295  0.00  0.00    -0.081 Cl
ENDBRANCH  11  13
BRANCH   1  23
ATOM     21  C   UNL     1      17.637  34.412  18.661  0.00  0.00    +0.241 C 
ATOM     22  O   UNL     1      17.339  34.642  19.866  0.00  0.00    -0.271 OA
ATOM     23  N   UNL     1      19.314  33.733  17.909  0.00  0.00    -0.279 N 
ATOM     24  H   UNL     1      19.649  32.978  18.544  0.00  0.00    +0.155 HD
BRANCH  21  26
ATOM     25  C   UNL     1      15.666  35.640  17.005  0.00  0.00    +0.028 C 
ATOM     26  C   UNL     1      16.129  34.781  17.943  0.00  0.00    +0.068 C 
BRANCH  25  27
ATOM     27  C   UNL     1      14.249  35.785  16.554  0.00  0.00    +0.159 C 
BRANCH  27  29
ATOM     28  C   UNL     1      15.364  35.344  14.304  0.00  0.00    +0.190 C 
ATOM     29  N   UNL     1      14.078  35.501  15.076  0.00  0.00    +0.234 N 
ATOM     30  C   UNL     1      13.182  34.312  14.856  0.00  0.00    +0.190 C 
ATOM     31  H   UNL     1      13.593  36.315  14.675  0.00  0.00    +0.203 HD
ENDBRANCH  27  29
ENDBRANCH  25  27
ENDBRANCH  21  26
ENDBRANCH   1  23
BRANCH   2  32
ATOM     32  O   UNL     1      22.013  34.271  17.837  0.00  0.00    -0.485 OA
BRANCH  32  33
ATOM     33  C   UNL     1      22.977  33.338  18.322  0.00  0.00    +0.201 C 
ATOM     34  C   UNL     1      22.809  32.907  20.277  0.00  0.00    +0.075 C 
ATOM     35  C   UNL     1      24.592  33.167  21.141  0.00  0.00    +0.163 C 
ATOM     36  O   UNL     1      25.849  33.602  19.726  0.00  0.00    -0.376 OA
ATOM     37  C   UNL     1      24.969  33.791  17.996  0.00  0.00    +0.204 C 
ENDBRANCH  32  33
ENDBRANCH   2  32
TORSDOF 7
ENDMDL
MODEL 3
REMARK minimizedAffinity -9.90849876
REMARK minimizedRMSD -1
REMARK  Name = 
REMARK  9 active torsions:
REMARK  status: ('A' for Active; 'I' for Inactive)
REMARK    1  A    between atoms: C_1  and  N_2
REMARK    2  A    between atoms: N_2  and  C_3
REMARK    3  A    between atoms: N_2  and  C_4
REMARK    4  A    between atoms: C_4  and  C_5
REMARK    5  A    between atoms: C_6  and  C_7
REMARK    6  A    between atoms: N_9  and  C_10
REMARK    7  A    between atoms: C_11  and  O_29
REMARK    8  A    between atoms: N_20  and  C_21
REMARK    9  A    between atoms: O_29  and  C_30
REMARK                            x       y       z     vdW  Elec       q    Type
REMARK                         _______ _______ _______ _____ _____    ______ ____
ROOT
ATOM      1  C   UNL     1      17.152  33.143  12.225  0.00  0.00    +0.077 A 
ATOM      2  C   UNL     1      17.729  32.340  11.284  0.00  0.00    +0.144 A 
ATOM      3  C   UNL     1      19.100  32.162  11.195  0.00  0.00    +0.076 A 
ATOM      4  C   UNL     1      19.938  32.703  12.148  0.00  0.00    +0.080 A 
ATOM      5  C   UNL     1      19.379  33.445  13.202  0.00  0.00    +0.042 A 
ATOM      6  C   UNL     1      17.979  33.723  13.190  0.00  0.00    +0.040 A 
ATOM      7  C   UNL     1      20.289  33.785  14.226  0.00  0.00    +0.134 A 
ATOM      8  N   UNL     1      21.605  33.520  14.116  0.00  0.00    -0.220 NA
ATOM      9  C   UNL     1      22.018  32.871  13.027  0.00  0.00    +0.223 A 
ATOM     10  N   UNL     1      21.236  32.427  12.044  0.00  0.00    -0.235 NA
ATOM     11  N   UNL     1      19.814  34.340  15.439  0.00  0.00    -0.299 N 
ATOM     12  H   UNL     1      18.864  34.074  15.655  0.00  0.00    +0.154 HD
ENDROOT
BRANCH  11  13
ATOM     13  C   UNL     1      20.557  34.702  16.584  0.00  0.00    +0.034 A 
ATOM     14  C   UNL     1      20.993  33.694  17.458  0.00  0.00    +0.046 A 
ATOM     15  C   UNL     1      21.811  34.001  18.549  0.00  0.00    +0.078 A 
ATOM     16  C   UNL     1      22.189  35.319  18.785  0.00  0.00    +0.142 A 
ATOM     17  C   UNL     1      21.751  36.334  17.945  0.00  0.00    +0.041 A 
ATOM     18  C   UNL     1      20.938  36.025  16.851  0.00  0.00    +0.026 A 
ATOM     19  F   UNL     1      22.986  35.632  19.816  0.00  0.00    -0.204 F 
ATOM     20 CL   UNL     1      22.361  32.731  19.574  0.00  0.00    -0.081 Cl
ENDBRANCH  11  13
BRANCH   1  23
ATOM     21  C   UNL     1      14.076  33.687  13.396  0.00  0.00    +0.241 C 
ATOM     22  O   UNL     1      12.857  33.505  13.121  0.00  0.00    -0.271 OA
ATOM     23  N   UNL     1      15.661  33.285  12.316  0.00  0.00    -0.279 N 
ATOM     24  H   UNL     1      15.438  33.556  11.335  0.00  0.00    +0.155 HD
BRANCH  21  26
ATOM     25  C   UNL     1      14.350  35.576  15.515  0.00  0.00    +0.028 C 
ATOM     26  C   UNL     1      13.891  34.454  14.913  0.00  0.00    +0.068 C 
BRANCH  25  27
ATOM     27  C   UNL     1      14.044  36.029  16.905  0.00  0.00    +0.159 C 
BRANCH  27  29
ATOM     28  C   UNL     1      15.780  34.465  17.925  0.00  0.00    +0.190 C 
ATOM     29  N   UNL     1      15.223  35.863  17.843  0.00  0.00    +0.234 N 
ATOM     30  C   UNL     1      16.314  36.848  17.516  0.00  0.00    +0.190 C 
ATOM     31  H   UNL     1      14.883  36.100  18.785  0.00  0.00    +0.203 HD
ENDBRANCH  27  29
ENDBRANCH  25  27
ENDBRANCH  21  26
ENDBRANCH   1  23
BRANCH   2  32
ATOM     32  O   UNL     1      16.907  31.642  10.493  0.00  0.00    -0.485 OA
BRANCH  32  33
ATOM     33  C   UNL     1      17.091  32.174   9.182  0.00  0.00    +0.201 C 
ATOM     34  C   UNL     1      15.839  33.672   8.707  0.00  0.00    +0.075 C 
ATOM     35  C   UNL     1      14.963  33.241   6.963  0.00  0.00    +0.163 C 
ATOM     36  O   UNL     1      15.768  31.596   6.317  0.00  0.00    -0.376 OA
ATOM     37  C   UNL     1      17.019  30.835   7.606  0.00  0.00    +0.204 C 
ENDBRANCH  32  33
ENDBRANCH   2  32
TORSDOF 7
ENDMDL
MODEL 4
REMARK minimizedAffinity -9.7830267
REMARK minimizedRMSD -1
REMARK  Name = 
REMARK  9 active torsions:
REMARK  status: ('A' for Active; 'I' for Inactive)
REMARK    1  A    between atoms: C_1  and  N_2
REMARK    2  A    between atoms: N_2  and  C_3
REMARK    3  A    between atoms: N_2  and  C_4
REMARK    4  A    between atoms: C_4  and  C_5
REMARK    5  A    between atoms: C_6  and  C_7
REMARK    6  A    between atoms: N_9  and  C_10
REMARK    7  A    between atoms: C_11  and  O_29
REMARK    8  A    between atoms: N_20  and  C_21
REMARK    9  A    between atoms: O_29  and  C_30
REMARK                            x       y       z     vdW  Elec       q    Type
REMARK                         _______ _______ _______ _____ _____    ______ ____
ROOT
ATOM      1  C   UNL     1      20.199  33.346  13.373  0.00  0.00    +0.077 A 
ATOM      2  C   UNL     1      19.470  33.510  14.517  0.00  0.00    +0.144 A 
ATOM      3  C   UNL     1      18.090  33.623  14.512  0.00  0.00    +0.076 A 
ATOM      4  C   UNL     1      17.378  33.448  13.344  0.00  0.00    +0.080 A 
ATOM      5  C   UNL     1      18.078  33.165  12.158  0.00  0.00    +0.042 A 
ATOM      6  C   UNL     1      19.505  33.189  12.171  0.00  0.00    +0.040 A 
ATOM      7  C   UNL     1      17.258  32.808  11.066  0.00  0.00    +0.134 A 
ATOM      8  N   UNL     1      15.914  32.867  11.144  0.00  0.00    -0.220 NA
ATOM      9  C   UNL     1      15.376  33.221  12.311  0.00  0.00    +0.223 A 
ATOM     10  N   UNL     1      16.051  33.493  13.427  0.00  0.00    -0.235 NA
ATOM     11  N   UNL     1      17.841  32.292   9.884  0.00  0.00    -0.299 N 
ATOM     12  H   UNL     1      18.726  31.831  10.041  0.00  0.00    +0.154 HD
ENDROOT
BRANCH  11  13
ATOM     13  C   UNL     1      17.191  31.845   8.712  0.00  0.00    +0.034 A 
ATOM     14  C   UNL     1      17.927  31.123   7.759  0.00  0.00    +0.046 A 
ATOM     15  C   UNL     1      17.299  30.581   6.635  0.00  0.00    +0.078 A 
ATOM     16  C   UNL     1      15.934  30.768   6.443  0.00  0.00    +0.142 A 
ATOM     17  C   UNL     1      15.192  31.499   7.361  0.00  0.00    +0.041 A 
ATOM     18  C   UNL     1      15.820  32.035   8.489  0.00  0.00    +0.026 A 
ATOM     19  F   UNL     1      15.311  30.244   5.378  0.00  0.00    -0.204 F 
ATOM     20 CL   UNL     1      18.228  29.663   5.512  0.00  0.00    -0.081 Cl
ENDBRANCH  11  13
BRANCH   1  23
ATOM     21  C   UNL     1      23.382  33.491  14.359  0.00  0.00    +0.241 C 
ATOM     22  O   UNL     1      24.565  33.353  13.938  0.00  0.00    -0.271 OA
ATOM     23  N   UNL     1      21.690  33.190  13.417  0.00  0.00    -0.279 N 
ATOM     24  H   UNL     1      21.805  32.321  12.855  0.00  0.00    +0.155 HD
BRANCH  21  26
ATOM     25  C   UNL     1      23.402  33.457  17.211  0.00  0.00    +0.028 C 
ATOM     26  C   UNL     1      23.729  33.914  15.979  0.00  0.00    +0.068 C 
BRANCH  25  27
ATOM     27  C   UNL     1      23.836  34.036  18.518  0.00  0.00    +0.159 C 
BRANCH  27  29
ATOM     28  C   UNL     1      25.180  32.846  20.329  0.00  0.00    +0.190 C 
ATOM     29  N   UNL     1      23.853  33.008  19.631  0.00  0.00    +0.234 N 
ATOM     30  C   UNL     1      22.761  33.279  20.632  0.00  0.00    +0.190 C 
ATOM     31  H   UNL     1      23.637  32.101  19.196  0.00  0.00    +0.203 HD
ENDBRANCH  27  29
ENDBRANCH  25  27
ENDBRANCH  21  26
ENDBRANCH   1  23
BRANCH   2  32
ATOM     32  O   UNL     1      20.139  33.463  15.675  0.00  0.00    -0.485 OA
BRANCH  32  33
ATOM     33  C   UNL     1      19.836  34.687  16.342  0.00  0.00    +0.201 C 
ATOM     34  C   UNL     1      20.919  36.263  15.725  0.00  0.00    +0.075 C 
ATOM     35  C   UNL     1      21.735  37.141  17.324  0.00  0.00    +0.163 C 
ATOM     36  O   UNL     1      21.050  36.216  18.888  0.00  0.00    -0.376 OA
ATOM     37  C   UNL     1      19.945  34.682  18.409  0.00  0.00    +0.204 C 
ENDBRANCH  32  33
ENDBRANCH   2  32
TORSDOF 7
ENDMDL
MODEL 5
REMARK minimizedAffinity -9.56339264
REMARK minimizedRMSD -1
REMARK  Name = 
REMARK  9 active torsions:
REMARK  status: ('A' for Active; 'I' for Inactive)
REMARK    1  A    between atoms: C_1  and  N_2
REMARK    2  A    between atoms: N_2  and  C_3
REMARK    3  A    between atoms: N_2  and  C_4
REMARK    4  A    between atoms: C_4  and  C_5
REMARK    5  A    between atoms: C_6  and  C_7
REMARK    6  A    between atoms: N_9  and  C_10
REMARK    7  A    between atoms: C_11  and  O_29
REMARK    8  A    between atoms: N_20  and  C_21
REMARK    9  A    between atoms: O_29  and  C_30
REMARK                            x       y       z     vdW  Elec       q    Type
REMARK                         _______ _______ _______ _____ _____    ______ ____
ROOT
ATOM      1  C   UNL     1      18.315  33.337  11.790  0.00  0.00    +0.077 A 
ATOM      2  C   UNL     1      17.699  33.724  12.946  0.00  0.00    +0.144 A 
ATOM      3  C   UNL     1      18.271  33.541  14.194  0.00  0.00    +0.076 A 
ATOM      4  C   UNL     1      19.560  33.063  14.309  0.00  0.00    +0.080 A 
ATOM      5  C   UNL     1      20.278  32.757  13.140  0.00  0.00    +0.042 A 
ATOM      6  C   UNL     1      19.614  32.829  11.878  0.00  0.00    +0.040 A 
ATOM      7  C   UNL     1      21.643  32.468  13.350  0.00  0.00    +0.134 A 
ATOM      8  N   UNL     1      22.161  32.374  14.590  0.00  0.00    -0.220 NA
ATOM      9  C   UNL     1      21.352  32.620  15.620  0.00  0.00    +0.223 A 
ATOM     10  N   UNL     1      20.073  32.985  15.534  0.00  0.00    -0.235 NA
ATOM     11  N   UNL     1      22.520  32.357  12.244  0.00  0.00    -0.299 N 
ATOM     12  H   UNL     1      22.219  32.887  11.439  0.00  0.00    +0.154 HD
ENDROOT
BRANCH  11  13
ATOM     13  C   UNL     1      23.912  32.116  12.254  0.00  0.00    +0.034 A 
ATOM     14  C   UNL     1      24.654  32.469  13.393  0.00  0.00    +0.046 A 
ATOM     15  C   UNL     1      26.014  32.160  13.481  0.00  0.00    +0.078 A 
ATOM     16  C   UNL     1      26.649  31.510  12.427  0.00  0.00    +0.142 A 
ATOM     17  C   UNL     1      25.939  31.174  11.283  0.00  0.00    +0.041 A 
ATOM     18  C   UNL     1      24.577  31.477  11.199  0.00  0.00    +0.026 A 
ATOM     19  F   UNL     1      27.949  31.192  12.499  0.00  0.00    -0.204 F 
ATOM     20 CL   UNL     1      26.880  32.569  14.912  0.00  0.00    -0.081 Cl
ENDBRANCH  11  13
BRANCH   1  23
ATOM     21  C   UNL     1      16.927  32.863   8.795  0.00  0.00    +0.241 C 
ATOM     22  O   UNL     1      16.634  33.466   7.724  0.00  0.00    -0.271 OA
ATOM     23  N   UNL     1      17.684  33.584  10.452  0.00  0.00    -0.279 N 
ATOM     24  H   UNL     1      17.208  34.494  10.634  0.00  0.00    +0.155 HD
BRANCH  21  26
ATOM     25  C   UNL     1      16.452  30.486   7.293  0.00  0.00    +0.028 C 
ATOM     26  C   UNL     1      16.381  31.299   8.373  0.00  0.00    +0.068 C 
BRANCH  25  27
ATOM     27  C   UNL     1      15.854  29.123   7.165  0.00  0.00    +0.159 C 
BRANCH  27  29
ATOM     28  C   UNL     1      14.198  28.309   5.405  0.00  0.00    +0.190 C 
ATOM     29  N   UNL     1      14.438  29.159   6.627  0.00  0.00    +0.234 N 
ATOM     30  C   UNL     1      13.443  28.824   7.706  0.00  0.00    +0.190 C 
ATOM     31  H   UNL     1      14.255  30.132   6.348  0.00  0.00    +0.203 HD
ENDBRANCH  27  29
ENDBRANCH  25  27
ENDBRANCH  21  26
ENDBRANCH   1  23
BRANCH   2  32
ATOM     32  O   UNL     1      16.542  34.385  12.826  0.00  0.00    -0.485 OA
BRANCH  32  33
ATOM     33  C   UNL     1      15.578  33.601  13.527  0.00  0.00    +0.201 C 
ATOM     34  C   UNL     1      14.112  32.856  12.373  0.00  0.00    +0.075 C 
ATOM     35  C   UNL     1      12.352  33.334  13.190  0.00  0.00    +0.163 C 
ATOM     36  O   UNL     1      12.733  34.221  14.875  0.00  0.00    -0.376 OA
ATOM     37  C   UNL     1      14.646  34.488  15.147  0.00  0.00    +0.204 C 
ENDBRANCH  32  33
ENDBRANCH   2  32
TORSDOF 7
ENDMDL
