REMARK  Name = =
REMARK  7 active torsions:
REMARK  status: ('A' for Active; 'I' for Inactive)
REMARK    1  A    between atoms: N_1  and  C_2
REMARK    2  A    between atoms: N_1  and  C_25
REMARK    3  A    between atoms: C_7  and  C_9
REMARK    4  A    between atoms: C_12  and  O_15
REMARK    5  A    between atoms: O_15  and  C_16
REMARK    6  A    between atoms: C_25  and  C_31
REMARK    7  A    between atoms: C_26  and  C_35
REMARK                            x       y       z     vdW  Elec       q    Type
REMARK                         _______ _______ _______ _____ _____    ______ ____
ROOT
ATOM      1  C   UNL     1      15.786  34.269  14.995  0.00  0.00    +0.132 C 
ATOM      2  N   UNL     1      15.177  34.502  16.175  0.00  0.00    -0.220 NA
ATOM      3  C   UNL     1      13.841  34.463  16.200  0.00  0.00    +0.225 C 
ATOM      4  N   UNL     1      13.045  34.198  15.166  0.00  0.00    -0.220 NA
ATOM      5  C   UNL     1      13.664  33.930  14.009  0.00  0.00    +0.129 C 
ATOM      6  C   UNL     1      15.058  33.958  13.842  0.00  0.00    +0.061 C 
ATOM      7  N   UNL     1      12.799  33.670  12.954  0.00  0.00    -0.343 N 
ATOM      8  H   UNL     1      11.827  33.677  13.237  0.00  0.00    +0.144 HD
ATOM      9  H   UNL     1      13.082  32.969  12.284  0.00  0.00    +0.144 HD
ENDROOT
BRANCH   6  10
ATOM     10  C   UNL     1      15.653  33.623  12.537  0.00  0.00    -0.011 C 
ATOM     11  C   UNL     1      15.727  34.583  11.512  0.00  0.00    +0.012 C 
ATOM     12  C   UNL     1      16.274  34.264  10.268  0.00  0.00    +0.047 C 
ATOM     13  C   UNL     1      16.764  32.981  10.037  0.00  0.00    +0.128 C 
ATOM     14  C   UNL     1      16.661  32.000  11.024  0.00  0.00    +0.047 C 
ATOM     15  C   UNL     1      16.107  32.321  12.267  0.00  0.00    +0.012 C 
BRANCH  13  16
ATOM     16  O   UNL     1      17.270  32.714   8.787  0.00  0.00    -0.456 OA
BRANCH  16  17
ATOM     17  C   UNL     1      16.570  31.823   8.005  0.00  0.00    +0.128 C 
ATOM     18  C   UNL     1      15.173  31.758   7.994  0.00  0.00    +0.046 C 
ATOM     19  C   UNL     1      14.528  30.802   7.209  0.00  0.00    +0.004 C 
ATOM     20  C   UNL     1      15.278  29.903   6.449  0.00  0.00    +0.000 C 
ATOM     21  C   UNL     1      16.673  29.953   6.479  0.00  0.00    +0.004 C 
ATOM     22  C   UNL     1      17.319  30.909   7.265  0.00  0.00    +0.046 C 
ENDBRANCH  16  17
ENDBRANCH  13  16
ENDBRANCH   6  10
BRANCH   1  23
ATOM     23  N   UNL     1      17.144  34.381  15.126  0.00  0.00    -0.328 N 
ATOM     24  H   UNL     1      17.384  34.582  16.093  0.00  0.00    +0.147 HD
BRANCH  23  25
ATOM     25  C   UNL     1      18.152  34.694  14.139  0.00  0.00    +0.106 C 
BRANCH  25  31
ATOM     26  C   UNL     1      23.090  32.798  12.767  0.00  0.00    +0.239 C 
ATOM     27  O   UNL     1      23.340  32.915  11.570  0.00  0.00    -0.271 OA
ATOM     28  N   UNL     1      21.819  32.609  13.279  0.00  0.00    -0.298 N 
ATOM     29  C   UNL     1      20.716  32.368  12.353  0.00  0.00    +0.108 C 
ATOM     30  C   UNL     1      19.640  33.441  12.495  0.00  0.00    +0.024 C 
ATOM     31  C   UNL     1      19.163  33.554  13.956  0.00  0.00    +0.009 C 
ATOM     32  C   UNL     1      20.370  33.773  14.884  0.00  0.00    +0.024 C 
ATOM     33  C   UNL     1      21.437  32.698  14.687  0.00  0.00    +0.108 C 
BRANCH  26  35
ATOM     34  C   UNL     1      25.417  32.363  13.446  0.00  0.00    +0.013 C 
ATOM     35  C   UNL     1      24.219  32.896  13.722  0.00  0.00    +0.060 C 
ENDBRANCH  26  35
ENDBRANCH  25  31
ENDBRANCH  23  25
ENDBRANCH   1  23
TORSDOF 7
