REMARK  Name = =
REMARK  0 active torsions:
REMARK  status: ('A' for Active; 'I' for Inactive)
REMARK                            x       y       z     vdW  Elec       q    Type
REMARK                         _______ _______ _______ _____ _____    ______ ____
ROOT
ATOM      1  C   UNL     1      15.638  35.465  15.878  0.00  0.00    +0.001 C 
ATOM      2  C   UNL     1      14.275  35.294  15.638  0.00  0.00    +0.002 C 
ATOM      3  C   UNL     1      13.823  34.557  14.540  0.00  0.00    +0.026 C 
ATOM      4  C   UNL     1      14.789  34.003  13.690  0.00  0.00    +0.049 A 
ATOM      5  C   UNL     1      16.161  34.157  13.904  0.00  0.00    +0.009 A 
ATOM      6  C   UNL     1      16.590  34.902  15.022  0.00  0.00    +0.010 C 
ATOM      7  C   UNL     1      16.836  33.473  12.847  0.00  0.00    +0.027 A 
ATOM      8  C   UNL     1      15.859  32.928  12.025  0.00  0.00    +0.141 A 
ATOM      9  N   UNL     1      14.640  33.249  12.548  0.00  0.00    -0.339 N 
ATOM     10  N   UNL     1      16.038  32.211  10.901  0.00  0.00    -0.215 NA
ATOM     11  C   UNL     1      17.330  32.017  10.579  0.00  0.00    +0.118 C 
ATOM     12  C   UNL     1      18.403  32.518  11.311  0.00  0.00    +0.044 C 
ATOM     13  C   UNL     1      18.171  33.256  12.475  0.00  0.00    +0.015 C 
ATOM     14  N   UNL     1      17.566  31.325   9.403  0.00  0.00    -0.343 N 
ATOM     15  H   UNL     1      13.765  32.971  12.134  0.00  0.00    +0.167 HD
ATOM     16  H   UNL     1      16.704  31.028   8.960  0.00  0.00    +0.144 HD
ATOM     17  H   UNL     1      18.333  30.670   9.396  0.00  0.00    +0.144 HD
ENDROOT
TORSDOF 0
