REMARK  Name = 
REMARK  8 active torsions:
REMARK  status: ('A' for Active; 'I' for Inactive)
REMARK    1  A    between atoms: C_1  and  C_2
REMARK    2  A    between atoms: C_2  and  N_3
REMARK    3  A    between atoms: C_4  and  C_6
REMARK    4  A    between atoms: C_6  and  C_7
REMARK    5  A    between atoms: C_11  and  C_30
REMARK    6  A    between atoms: C_16  and  O_19
REMARK    7  A    between atoms: O_19  and  C_20
REMARK    8  A    between atoms: C_21  and  C_23
REMARK                            x       y       z     vdW  Elec       q    Type
REMARK                         _______ _______ _______ _____ _____    ______ ____
ROOT
ATOM      1  C   UNL     1      -1.951   1.957  -1.421  0.00  0.00    +0.182 C 
ATOM      2  C   UNL     1      -1.618   1.296  -2.712  0.00  0.00    +0.163 A 
ATOM      3  N   UNL     1      -1.161   0.068  -2.849  0.00  0.00    -0.132 NA
ATOM      4  N   UNL     1      -0.924  -0.151  -4.174  0.00  0.00    -0.134 NA
ATOM      5  C   UNL     1      -1.243   0.942  -4.836  0.00  0.00    +0.135 A 
ATOM      6  N   UNL     1      -1.676   1.912  -3.943  0.00  0.00    -0.281 N 
ATOM      7  C   UNL     1      -2.050   3.256  -4.179  0.00  0.00    +0.059 A 
ATOM      8  C   UNL     1      -3.010   3.901  -3.384  0.00  0.00    +0.028 A 
ATOM      9  C   UNL     1      -3.265   5.269  -3.595  0.00  0.00    +0.057 A 
ATOM     10  C   UNL     1      -2.601   5.989  -4.589  0.00  0.00    +0.121 A 
ATOM     11  C   UNL     1      -1.668   5.339  -5.388  0.00  0.00    +0.048 A 
ATOM     12  C   UNL     1      -1.389   3.984  -5.182  0.00  0.00    +0.030 A 
ATOM     13  C   UNL     1      -3.813   3.222  -2.314  0.00  0.00    +0.076 C 
ATOM     14  N   UNL     1      -3.346   2.411  -1.427  0.00  0.00    -0.271 NA
ATOM     15  C   UNL     1      -1.248   1.041  -6.315  0.00  0.00    +0.088 C 
ENDROOT
BRANCH  13  16
ATOM     16  C   UNL     1      -5.283   3.510  -2.246  0.00  0.00    +0.001 A 
ATOM     17  C   UNL     1      -6.053   3.613  -3.413  0.00  0.00    +0.011 A 
ATOM     18  C   UNL     1      -7.423   3.877  -3.323  0.00  0.00    +0.020 A 
ATOM     19  C   UNL     1      -8.021   4.028  -2.072  0.00  0.00    +0.041 A 
ATOM     20  C   UNL     1      -7.264   3.908  -0.907  0.00  0.00    +0.020 A 
ATOM     21  C   UNL     1      -5.895   3.642  -0.993  0.00  0.00    +0.011 A 
ATOM     22 CL   UNL     1      -9.706   4.357  -1.966  0.00  0.00    -0.084 Cl
ENDBRANCH  13  16
BRANCH  10  23
ATOM     23  O   UNL     1      -2.952   7.307  -4.671  0.00  0.00    -0.495 OA
ATOM     24  C   UNL     1      -2.180   8.126  -5.542  0.00  0.00    +0.277 C 
ENDBRANCH  10  23
BRANCH   1  25
ATOM     25  C   UNL     1      -1.000   3.054  -0.948  0.00  0.00    +0.130 C 
BRANCH  25  27
ATOM     26  N   UNL     1       1.158   1.915  -0.443  0.00  0.00    -0.315 N 
ATOM     27  C   UNL     1       0.450   2.755  -1.243  0.00  0.00    +0.215 C 
ATOM     28  O   UNL     1       1.010   3.275  -2.210  0.00  0.00    -0.276 OA
ATOM     29  H   UNL     1       2.116   1.795  -0.752  0.00  0.00    +0.149 HD
BRANCH  26  31
ATOM     30  C   UNL     1       0.732  -0.326   0.439  0.00  0.00    +0.024 C 
ATOM     31  C   UNL     1       0.735   1.164   0.723  0.00  0.00    +0.101 C 
ENDBRANCH  26  31
ENDBRANCH  25  27
ENDBRANCH   1  25
TORSDOF 5
