REMARK  Name = 
REMARK  1 active torsions:
REMARK  status: ('A' for Active; 'I' for Inactive)
REMARK    1  A    between atoms: C_12  and  N_15
REMARK                            x       y       z     vdW  Elec       q    Type
REMARK                         _______ _______ _______ _____ _____    ______ ____
ROOT
ATOM      1  C   UNL     1      -3.707  -0.645   0.370  0.00  0.00    +0.005 C 
ATOM      2  C   UNL     1      -3.638   0.679  -0.373  0.00  0.00    +0.006 C 
ATOM      3  C   UNL     1      -2.383   1.435   0.046  0.00  0.00    +0.056 C 
ATOM      4  C   UNL     1      -1.134   0.593  -0.008  0.00  0.00    +0.047 A 
ATOM      5  N   UNL     1       0.023   1.293  -0.015  0.00  0.00    -0.251 NA
ATOM      6  C   UNL     1       1.184   0.627  -0.013  0.00  0.00    +0.073 A 
ATOM      7  C   UNL     1       2.354   1.375   0.006  0.00  0.00    +0.028 A 
ATOM      8  C   UNL     1       3.615   0.778   0.015  0.00  0.00    +0.002 A 
ATOM      9  C   UNL     1       3.714  -0.604   0.009  0.00  0.00    +0.001 A 
ATOM     10  C   UNL     1       2.551  -1.376  -0.010  0.00  0.00    +0.012 A 
ATOM     11  C   UNL     1       1.263  -0.781  -0.027  0.00  0.00    +0.021 A 
ATOM     12  C   UNL     1       0.038  -1.506  -0.063  0.00  0.00    +0.039 A 
ATOM     13  C   UNL     1      -1.182  -0.803   0.005  0.00  0.00    -0.005 A 
ATOM     14  C   UNL     1      -2.510  -1.525   0.012  0.00  0.00    +0.039 C 
ENDROOT
BRANCH  12  15
ATOM     15  N   UNL     1       0.033  -2.908  -0.040  0.00  0.00    -0.357 N 
ATOM     16  H   UNL     1      -0.829  -3.402  -0.227  0.00  0.00    +0.142 HD
ATOM     17  H   UNL     1       0.879  -3.409  -0.268  0.00  0.00    +0.142 HD
ENDBRANCH  12  15
TORSDOF 1
