REMARK  Name = =
REMARK  2 active torsions:
REMARK  status: ('A' for Active; 'I' for Inactive)
REMARK    1  A    between atoms: N_15  and  C_18
REMARK    2  A    between atoms: C_18  and  C_19
REMARK                            x       y       z     vdW  Elec       q    Type
REMARK                         _______ _______ _______ _____ _____    ______ ____
ROOT
ATOM      1  C   UNL     1      14.427  33.752  16.925  0.00  0.00    +0.148 C 
ATOM      2  C   UNL     1      15.889  34.184  16.732  0.00  0.00    +0.159 C 
ATOM      3  N   UNL     1      16.142  34.561  15.323  0.00  0.00    -0.291 N 
ATOM      4  C   UNL     1      15.236  35.606  14.799  0.00  0.00    +0.159 C 
ATOM      5  C   UNL     1      13.766  35.195  14.987  0.00  0.00    +0.148 C 
ATOM      6  N   UNL     1      13.498  34.836  16.428  0.00  0.00    +0.229 N 
ATOM      7  C   UNL     1      17.456  34.775  15.040  0.00  0.00    +0.200 A 
ATOM      8  N   UNL     1      18.102  35.899  15.227  0.00  0.00    -0.214 NA
ATOM      9  C   UNL     1      19.398  35.645  14.854  0.00  0.00    +0.091 A 
ATOM     10  C   UNL     1      20.511  36.497  14.872  0.00  0.00    +0.030 C 
ATOM     11  C   UNL     1      21.747  36.003  14.436  0.00  0.00    +0.002 C 
ATOM     12  C   UNL     1      21.869  34.686  13.990  0.00  0.00    +0.002 C 
ATOM     13  C   UNL     1      20.769  33.822  13.963  0.00  0.00    +0.028 C 
ATOM     14  C   UNL     1      19.543  34.334  14.406  0.00  0.00    +0.070 A 
ATOM     15  N   UNL     1      18.277  33.800  14.519  0.00  0.00    -0.307 N 
ATOM     16  H   UNL     1      12.522  34.534  16.538  0.00  0.00    +0.201 HD
ATOM     17  H   UNL     1      13.622  35.674  17.011  0.00  0.00    +0.201 HD
ENDROOT
BRANCH  15  18
ATOM     18  C   UNL     1      17.864  32.486  14.046  0.00  0.00    +0.160 C 
BRANCH  18  19
ATOM     19  C   UNL     1      17.383  32.491  12.615  0.00  0.00    -0.028 C 
ATOM     20  C   UNL     1      18.287  32.226  11.573  0.00  0.00    +0.005 C 
ATOM     21  C   UNL     1      17.857  32.204  10.245  0.00  0.00    +0.000 C 
ATOM     22  C   UNL     1      16.518  32.438   9.942  0.00  0.00    +0.000 C 
ATOM     23  C   UNL     1      15.605  32.682  10.967  0.00  0.00    +0.000 C 
ATOM     24  C   UNL     1      16.032  32.699  12.296  0.00  0.00    +0.005 C 
ENDBRANCH  18  19
ENDBRANCH  15  18
TORSDOF 2
