REMARK  Name = =
REMARK  7 active torsions:
REMARK  status: ('A' for Active; 'I' for Inactive)
REMARK    1  A    between atoms: C_1  and  O_36
REMARK    2  A    between atoms: C_2  and  N_21
REMARK    3  A    between atoms: C_10  and  N_11
REMARK    4  A    between atoms: N_11  and  C_13
REMARK    5  A    between atoms: C_22  and  C_25
REMARK    6  A    between atoms: C_26  and  C_27
REMARK    7  A    between atoms: C_27  and  N_28
REMARK                            x       y       z     vdW  Elec       q    Type
REMARK                         _______ _______ _______ _____ _____    ______ ____
ROOT
ATOM      1  C   UNL     1      20.467  33.095  16.868  0.00  0.00    +0.143 C 
ATOM      2  C   UNL     1      19.118  33.169  16.495  0.00  0.00    +0.077 C 
ATOM      3  C   UNL     1      18.773  32.969  15.160  0.00  0.00    +0.040 C 
ATOM      4  C   UNL     1      19.766  32.791  14.167  0.00  0.00    +0.042 C 
ATOM      5  C   UNL     1      21.116  32.802  14.534  0.00  0.00    +0.080 C 
ATOM      6  C   UNL     1      21.445  32.929  15.880  0.00  0.00    +0.076 C 
ATOM      7  N   UNL     1      22.097  32.691  13.637  0.00  0.00    -0.235 NA
ATOM      8  C   UNL     1      21.740  32.574  12.354  0.00  0.00    +0.223 C 
ATOM      9  N   UNL     1      20.487  32.551  11.886  0.00  0.00    -0.220 NA
ATOM     10  C   UNL     1      19.502  32.625  12.794  0.00  0.00    +0.134 C 
ENDROOT
BRANCH   2  11
ATOM     11  N   UNL     1      18.159  33.390  17.505  0.00  0.00    -0.279 N 
ATOM     12  C   UNL     1      17.484  34.511  17.887  0.00  0.00    +0.241 C 
ATOM     13  O   UNL     1      16.486  34.455  18.600  0.00  0.00    -0.271 OA
ATOM     14  H   UNL     1      17.927  32.566  18.058  0.00  0.00    +0.155 HD
BRANCH  12  15
ATOM     15  C   UNL     1      18.067  35.836  17.532  0.00  0.00    +0.068 C 
ATOM     16  C   UNL     1      19.067  36.346  18.269  0.00  0.00    +0.028 C 
BRANCH  16  17
ATOM     17  C   UNL     1      19.866  37.596  18.102  0.00  0.00    +0.160 C 
BRANCH  17  18
ATOM     18  N   UNL     1      19.705  38.738  19.075  0.00  0.00    +0.238 N 
ATOM     19  C   UNL     1      18.272  39.037  19.447  0.00  0.00    +0.131 C 
ATOM     20  C   UNL     1      18.214  40.368  20.183  0.00  0.00    +0.051 C 
ATOM     21  C   UNL     1      19.147  40.386  21.390  0.00  0.00    +0.010 C 
ATOM     22  C   UNL     1      20.577  40.037  20.990  0.00  0.00    +0.051 C 
ATOM     23  C   UNL     1      20.650  38.707  20.250  0.00  0.00    +0.131 C 
ATOM     24  H   UNL     1      20.006  39.553  18.523  0.00  0.00    +0.204 HD
ENDBRANCH  17  18
ENDBRANCH  16  17
ENDBRANCH  12  15
ENDBRANCH   2  11
BRANCH  10  25
ATOM     25  N   UNL     1      18.155  32.531  12.363  0.00  0.00    -0.299 N 
ATOM     26  H   UNL     1      17.673  31.804  12.884  0.00  0.00    +0.154 HD
BRANCH  25  27
ATOM     27  C   UNL     1      17.571  32.818  11.116  0.00  0.00    +0.034 C 
ATOM     28  C   UNL     1      17.677  31.866  10.088  0.00  0.00    +0.046 C 
ATOM     29  C   UNL     1      17.037  32.060   8.861  0.00  0.00    +0.078 C 
ATOM     30  C   UNL     1      16.279  33.204   8.648  0.00  0.00    +0.142 C 
ATOM     31  C   UNL     1      16.145  34.152   9.654  0.00  0.00    +0.041 C 
ATOM     32  C   UNL     1      16.778  33.951  10.885  0.00  0.00    +0.026 C 
ATOM     33  F   UNL     1      15.639  33.399   7.486  0.00  0.00    -0.204 F 
ATOM     34 CL   UNL     1      17.165  30.847   7.647  0.00  0.00    -0.081 Cl
ENDBRANCH  25  27
ENDBRANCH  10  25
BRANCH   1  36
ATOM     35  C   UNL     1      22.081  33.354  18.610  0.00  0.00    +0.277 C 
ATOM     36  O   UNL     1      20.718  33.237  18.210  0.00  0.00    -0.493 OA
ENDBRANCH   1  36
TORSDOF 7
