REMARK  Name = 
REMARK  8 active torsions:
REMARK  status: ('A' for Active; 'I' for Inactive)
REMARK    1  A    between atoms: C_2  and  C_3
REMARK    2  A    between atoms: N_5  and  C_6
REMARK    3  A    between atoms: C_7  and  O_25
REMARK    4  A    between atoms: N_16  and  C_17
REMARK    5  A    between atoms: O_25  and  C_26
REMARK    6  A    between atoms: C_26  and  C_27
REMARK    7  A    between atoms: C_27  and  C_28
REMARK    8  A    between atoms: C_28  and  N_29
REMARK                            x       y       z     vdW  Elec       q    Type
REMARK                         _______ _______ _______ _____ _____    ______ ____
ROOT
ATOM      1  C   UNL     1      -1.844   1.613  -0.656  0.00  0.00    +0.077 A 
ATOM      2  C   UNL     1      -0.488   1.248  -0.634  0.00  0.00    +0.144 A 
ATOM      3  C   UNL     1       0.485   2.248  -0.621  0.00  0.00    +0.076 A 
ATOM      4  C   UNL     1       0.155   3.595  -0.527  0.00  0.00    +0.080 A 
ATOM      5  C   UNL     1      -1.191   3.969  -0.415  0.00  0.00    +0.042 A 
ATOM      6  C   UNL     1      -2.186   2.957  -0.489  0.00  0.00    +0.040 A 
ATOM      7  C   UNL     1      -1.421   5.347  -0.198  0.00  0.00    +0.134 A 
ATOM      8  N   UNL     1      -0.405   6.223  -0.151  0.00  0.00    -0.220 NA
ATOM      9  C   UNL     1       0.831   5.751  -0.325  0.00  0.00    +0.223 A 
ATOM     10  N   UNL     1       1.158   4.468  -0.492  0.00  0.00    -0.235 NA
ATOM     11  N   UNL     1      -2.729   5.784   0.113  0.00  0.00    -0.299 N 
ATOM     12  H   UNL     1      -3.449   5.336  -0.437  0.00  0.00    +0.154 HD
ENDROOT
BRANCH  11  13
ATOM     13  C   UNL     1      -3.202   6.904   0.825  0.00  0.00    +0.034 A 
ATOM     14  C   UNL     1      -4.523   6.864   1.308  0.00  0.00    +0.046 A 
ATOM     15  C   UNL     1      -5.028   7.886   2.119  0.00  0.00    +0.078 A 
ATOM     16  C   UNL     1      -4.222   8.967   2.453  0.00  0.00    +0.142 A 
ATOM     17  C   UNL     1      -2.915   9.029   1.992  0.00  0.00    +0.041 A 
ATOM     18  C   UNL     1      -2.406   7.994   1.199  0.00  0.00    +0.026 A 
ATOM     19  F   UNL     1      -4.683   9.956   3.231  0.00  0.00    -0.204 F 
ATOM     20 CL   UNL     1      -6.638   7.768   2.718  0.00  0.00    -0.081 Cl
ENDBRANCH  11  13
BRANCH   1  23
ATOM     21  C   UNL     1      -2.919  -0.601  -1.191  0.00  0.00    +0.241 C 
ATOM     22  O   UNL     1      -3.621  -1.447  -0.647  0.00  0.00    -0.271 OA
ATOM     23  N   UNL     1      -2.901   0.680  -0.698  0.00  0.00    -0.279 N 
ATOM     24  H   UNL     1      -3.795   0.953  -0.302  0.00  0.00    +0.155 HD
BRANCH  21  26
ATOM     25  C   UNL     1      -1.991  -2.150  -2.855  0.00  0.00    +0.013 C 
ATOM     26  C   UNL     1      -2.121  -0.894  -2.410  0.00  0.00    +0.060 C 
ENDBRANCH  21  26
ENDBRANCH   1  23
BRANCH   2  27
ATOM     27  O   UNL     1      -0.230  -0.090  -0.517  0.00  0.00    -0.490 OA
BRANCH  27  28
ATOM     28  C   UNL     1       1.067  -0.563  -0.168  0.00  0.00    +0.234 C 
BRANCH  28  29
ATOM     29  C   UNL     1       1.232  -0.618   1.350  0.00  0.00    +0.092 C 
BRANCH  29  30
ATOM     30  C   UNL     1       0.189  -1.501   2.044  0.00  0.00    +0.134 C 
BRANCH  30  31
ATOM     31  N   UNL     1      -1.181  -0.861   2.119  0.00  0.00    +0.239 N 
ATOM     32  C   UNL     1      -2.254  -1.902   2.465  0.00  0.00    +0.160 C 
ATOM     33  C   UNL     1      -3.626  -1.239   2.636  0.00  0.00    +0.210 C 
ATOM     34  O   UNL     1      -3.577  -0.191   3.610  0.00  0.00    -0.369 OA
ATOM     35  C   UNL     1      -2.675   0.842   3.209  0.00  0.00    +0.210 C 
ATOM     36  C   UNL     1      -1.245   0.306   3.101  0.00  0.00    +0.160 C 
ATOM     37  H   UNL     1      -1.415  -0.515   1.175  0.00  0.00    +0.203 HD
ENDBRANCH  30  31
ENDBRANCH  29  30
ENDBRANCH  28  29
ENDBRANCH  27  28
ENDBRANCH   2  27
TORSDOF 8
