REMARK  Name = 
REMARK  9 active torsions:
REMARK  status: ('A' for Active; 'I' for Inactive)
REMARK    1  A    between atoms: C_1  and  S_2
REMARK    2  A    between atoms: S_2  and  C_5
REMARK    3  A    between atoms: C_5  and  C_6
REMARK    4  A    between atoms: C_6  and  N_7
REMARK    5  A    between atoms: C_8  and  C_10
REMARK    6  A    between atoms: N_21  and  C_22
REMARK    7  A    between atoms: C_25  and  O_28
REMARK    8  A    between atoms: O_28  and  C_29
REMARK    9  A    between atoms: C_33  and  C_35
REMARK                            x       y       z     vdW  Elec       q    Type
REMARK                         _______ _______ _______ _____ _____    ______ ____
ROOT
ATOM      1  C   UNL     1       1.947   0.315  -5.045  0.00  0.00    +0.017 C 
ATOM      2  C   UNL     1       3.158  -0.228  -5.261  0.00  0.00    +0.023 C 
ATOM      3  C   UNL     1       3.620  -0.990  -6.452  0.00  0.00    +0.055 A 
ATOM      4  C   UNL     1       3.039  -0.943  -7.724  0.00  0.00    +0.131 A 
ATOM      5  N   UNL     1       1.926  -0.240  -8.092  0.00  0.00    -0.328 N 
ATOM      6  C   UNL     1       1.308   0.851  -7.387  0.00  0.00    +0.108 C 
ATOM      7  C   UNL     1       0.814   0.410  -6.018  0.00  0.00    +0.059 C 
ATOM      8  N   UNL     1       3.528  -1.639  -8.767  0.00  0.00    -0.220 NA
ATOM      9  C   UNL     1       4.625  -2.364  -8.562  0.00  0.00    +0.225 A 
ATOM     10  N   UNL     1       5.273  -2.480  -7.407  0.00  0.00    -0.220 NA
ATOM     11  C   UNL     1       4.765  -1.811  -6.354  0.00  0.00    +0.135 A 
ATOM     12  N   UNL     1       5.420  -1.976  -5.109  0.00  0.00    -0.299 N 
ATOM     13  H   UNL     1       1.717  -0.356  -9.078  0.00  0.00    +0.147 HD
ATOM     14  H   UNL     1       4.772  -2.172  -4.358  0.00  0.00    +0.154 HD
ENDROOT
BRANCH  12  15
ATOM     15  C   UNL     1       6.756  -2.319  -4.833  0.00  0.00    +0.034 A 
ATOM     16  C   UNL     1       7.090  -2.828  -3.572  0.00  0.00    +0.047 A 
ATOM     17  C   UNL     1       8.415  -3.160  -3.257  0.00  0.00    +0.085 A 
ATOM     18  C   UNL     1       9.442  -2.980  -4.192  0.00  0.00    +0.147 A 
ATOM     19  C   UNL     1       9.119  -2.453  -5.445  0.00  0.00    +0.049 A 
ATOM     20  C   UNL     1       7.792  -2.126  -5.755  0.00  0.00    +0.027 A 
ATOM     21 CL   UNL     1       8.736  -3.791  -1.679  0.00  0.00    -0.080 Cl
BRANCH  18  22
ATOM     22  O   UNL     1      10.719  -3.322  -3.792  0.00  0.00    -0.455 OA
BRANCH  22  23
ATOM     23  C   UNL     1      11.735  -3.245  -4.708  0.00  0.00    +0.129 A 
ATOM     24  C   UNL     1      11.991  -4.320  -5.558  0.00  0.00    +0.046 A 
ATOM     25  C   UNL     1      13.055  -4.248  -6.455  0.00  0.00    +0.004 A 
ATOM     26  C   UNL     1      13.866  -3.110  -6.487  0.00  0.00    +0.012 A 
ATOM     27  C   UNL     1      13.623  -2.031  -5.620  0.00  0.00    +0.058 A 
ATOM     28  C   UNL     1      12.555  -2.116  -4.715  0.00  0.00    +0.058 A 
BRANCH  27  29
ATOM     29  C   UNL     1      14.525  -0.822  -5.639  0.00  0.00    +0.418 C 
ATOM     30  F   UNL     1      15.702  -1.041  -4.991  0.00  0.00    -0.166 F 
ATOM     31  F   UNL     1      14.860  -0.436  -6.902  0.00  0.00    -0.166 F 
ATOM     32  F   UNL     1      13.972   0.275  -5.052  0.00  0.00    -0.166 F 
ENDBRANCH  27  29
ENDBRANCH  22  23
ENDBRANCH  18  22
ENDBRANCH  12  15
BRANCH   1  34
ATOM     33  N   UNL     1       1.008   0.569  -2.803  0.00  0.00    -0.310 N 
ATOM     34  C   UNL     1       1.789   1.091  -3.791  0.00  0.00    +0.240 C 
ATOM     35  O   UNL     1       2.351   2.169  -3.639  0.00  0.00    -0.271 OA
ATOM     36  H   UNL     1       0.887   1.217  -2.031  0.00  0.00    +0.149 HD
BRANCH  33  37
ATOM     37  C   UNL     1       0.300  -0.703  -2.765  0.00  0.00    +0.127 C 
BRANCH  37  38
ATOM     38  C   UNL     1       1.199  -1.877  -2.419  0.00  0.00    +0.184 C 
BRANCH  38  40
ATOM     39  C   UNL     1       2.058  -0.710   0.009  0.00  0.00    +0.194 C 
ATOM     40  S   UNL     1       1.323  -2.180  -0.669  0.00  0.00    -0.032 S 
ATOM     41  O   UNL     1       2.281  -3.257  -0.499  0.00  0.00    -0.175 OA
ATOM     42  O   UNL     1      -0.020  -2.296  -0.137  0.00  0.00    -0.175 OA
ENDBRANCH  38  40
ENDBRANCH  37  38
ENDBRANCH  33  37
ENDBRANCH   1  34
TORSDOF 8
