REMARK  Name = =
REMARK  9 active torsions:
REMARK  status: ('A' for Active; 'I' for Inactive)
REMARK    1  A    between atoms: C_1  and  C_34
REMARK    2  A    between atoms: C_11  and  N_12
REMARK    3  A    between atoms: N_12  and  C_15
REMARK    4  A    between atoms: C_18  and  O_22
REMARK    5  A    between atoms: O_22  and  C_23
REMARK    6  A    between atoms: C_27  and  C_29
REMARK    7  A    between atoms: N_33  and  C_37
REMARK    8  A    between atoms: C_37  and  C_38
REMARK    9  A    between atoms: C_38  and  S_40
REMARK                            x       y       z     vdW  Elec       q    Type
REMARK                         _______ _______ _______ _____ _____    ______ ____
ROOT
ATOM      1  C   UNL     1      18.566  35.837  16.369  0.00  0.00    +0.017 C 
ATOM      2  C   UNL     1      17.981  35.419  15.233  0.00  0.00    +0.023 C 
ATOM      3  C   UNL     1      16.570  34.991  15.035  0.00  0.00    +0.055 C 
ATOM      4  C   UNL     1      15.495  35.319  15.869  0.00  0.00    +0.131 C 
ATOM      5  N   UNL     1      15.547  36.039  17.030  0.00  0.00    -0.328 N 
ATOM      6  C   UNL     1      16.611  36.896  17.480  0.00  0.00    +0.108 C 
ATOM      7  C   UNL     1      17.899  36.114  17.680  0.00  0.00    +0.059 C 
ATOM      8  N   UNL     1      14.235  34.921  15.612  0.00  0.00    -0.220 NA
ATOM      9  C   UNL     1      14.027  34.219  14.501  0.00  0.00    +0.225 C 
ATOM     10  N   UNL     1      14.960  33.855  13.627  0.00  0.00    -0.220 NA
ATOM     11  C   UNL     1      16.227  34.224  13.900  0.00  0.00    +0.135 C 
ATOM     12  H   UNL     1      14.627  36.156  17.441  0.00  0.00    +0.147 HD
ENDROOT
BRANCH   1  14
ATOM     13  N   UNL     1      20.945  35.495  16.816  0.00  0.00    -0.310 N 
ATOM     14  C   UNL     1      19.978  36.277  16.257  0.00  0.00    +0.240 C 
ATOM     15  O   UNL     1      20.274  37.311  15.670  0.00  0.00    -0.271 OA
ATOM     16  H   UNL     1      21.861  35.929  16.770  0.00  0.00    +0.149 HD
BRANCH  13  17
ATOM     17  C   UNL     1      20.811  34.219  17.507  0.00  0.00    +0.127 C 
BRANCH  17  18
ATOM     18  C   UNL     1      20.804  34.357  19.020  0.00  0.00    +0.184 C 
BRANCH  18  20
ATOM     19  C   UNL     1      22.819  33.026  20.491  0.00  0.00    +0.194 C 
ATOM     20  S   UNL     1      22.428  34.578  19.716  0.00  0.00    -0.032 S 
ATOM     21  O   UNL     1      22.298  35.565  20.772  0.00  0.00    -0.175 OA
ATOM     22  O   UNL     1      23.360  34.782  18.625  0.00  0.00    -0.175 OA
ENDBRANCH  18  20
ENDBRANCH  17  18
ENDBRANCH  13  17
ENDBRANCH   1  14
BRANCH  11  23
ATOM     23  N   UNL     1      17.232  33.792  13.000  0.00  0.00    -0.299 N 
ATOM     24  H   UNL     1      18.027  33.390  13.478  0.00  0.00    +0.154 HD
BRANCH  23  25
ATOM     25  C   UNL     1      17.136  33.454  11.638  0.00  0.00    +0.034 C 
ATOM     26  C   UNL     1      16.334  34.228  10.791  0.00  0.00    +0.047 C 
ATOM     27  C   UNL     1      16.200  33.907   9.433  0.00  0.00    +0.085 C 
ATOM     28  C   UNL     1      16.856  32.794   8.891  0.00  0.00    +0.147 C 
ATOM     29  C   UNL     1      17.641  32.005   9.735  0.00  0.00    +0.049 C 
ATOM     30  C   UNL     1      17.773  32.334  11.091  0.00  0.00    +0.027 C 
ATOM     31 CL   UNL     1      15.197  34.924   8.458  0.00  0.00    -0.080 Cl
BRANCH  28  32
ATOM     32  O   UNL     1      16.657  32.545   7.547  0.00  0.00    -0.455 OA
BRANCH  32  33
ATOM     33  C   UNL     1      16.504  31.247   7.137  0.00  0.00    +0.129 C 
ATOM     34  C   UNL     1      17.506  30.628   6.391  0.00  0.00    +0.046 C 
ATOM     35  C   UNL     1      17.320  29.322   5.942  0.00  0.00    +0.004 C 
ATOM     36  C   UNL     1      16.129  28.648   6.226  0.00  0.00    +0.012 C 
ATOM     37  C   UNL     1      15.108  29.274   6.962  0.00  0.00    +0.058 C 
ATOM     38  C   UNL     1      15.301  30.591   7.403  0.00  0.00    +0.058 C 
BRANCH  37  39
ATOM     39  C   UNL     1      13.813  28.550   7.234  0.00  0.00    +0.418 C 
ATOM     40  F   UNL     1      13.380  27.837   6.159  0.00  0.00    -0.166 F 
ATOM     41  F   UNL     1      13.915  27.657   8.258  0.00  0.00    -0.166 F 
ATOM     42  F   UNL     1      12.789  29.382   7.570  0.00  0.00    -0.166 F 
ENDBRANCH  37  39
ENDBRANCH  32  33
ENDBRANCH  28  32
ENDBRANCH  23  25
ENDBRANCH  11  23
TORSDOF 9
